/*---------------------------------------------------------------------------*\
| =========                 |                                                 |
| \\      /  F ield         | OpenFOAM: The Open Source CFD Toolbox           |
|  \\    /   O peration     | Version:  2406                                  |
|   \\  /    A nd           | Website:  www.openfoam.com                      |
|    \\/     M anipulation  |                                                 |
\*---------------------------------------------------------------------------*/
Build  : _be01ca78-20240625 OPENFOAM=2406 version=2406
Arch   : "LSB;label=32;scalar=64"
Exec   : simpleFoam -parallel
Date   : Nov 08 2024
Time   : 22:43:37
Host   : 5d1c3722a369
PID    : 3948
I/O    : uncollated
Case   : /home/user/workDir/ampersandTests/in3
nProcs : 4
Hosts  :
(
    (5d1c3722a369 4)
)
Pstream initialized with:
    floatTransfer      : false
    maxCommsSize       : 0
    nProcsSimpleSum    : 0
    nonBlockingExchange: 0 (tuning: 0)
    exchange algorithm : 0
    commsType          : nonBlocking
    polling iterations : 0
trapFpe: Floating point exception trapping enabled (FOAM_SIGFPE).
fileModificationChecking : Monitoring run-time modified files using timeStampMaster (fileModificationSkew 5, maxFileModificationPolls 20)
allowSystemOperations : Allowing user-supplied system call operations

// * * * * * * * * * * * * * * * * * * * * * * * * * * * * * * * * * * * * * //
Create time

Create mesh for time = 0


SIMPLE: convergence criteria
    field U	 tolerance 0.0001
    field p	 tolerance 0.0001
    field k	 tolerance 0.0001
    field omega	 tolerance 0.0001
    field epsilon	 tolerance 0.0001
    field nut	 tolerance 0.0001

Reading field p

Reading field U

Reading/calculating face flux field phi

Selecting incompressible transport model Newtonian
Selecting turbulence model type RAS
Selecting RAS turbulence model kOmegaSST
Selecting patchDistMethod meshWave
RAS
{
    RASModel        kOmegaSST;
    turbulence      on;
    printCoeffs     on;
    Cmu             0.09;
    alphaK1         0.85;
    alphaK2         1;
    alphaOmega1     0.5;
    alphaOmega2     0.856;
    gamma1          0.555556;
    gamma2          0.44;
    beta1           0.075;
    beta2           0.0828;
    betaStar        0.09;
    a1              0.31;
    b1              1;
    c1              10;
    F3              false;
    decayControl    false;
    kInf            0;
    omegaInf        0;
}

No MRF models present

No finite volume options present

Starting time loop

forces forces:
    rho: rhoInf
    Freestream density (rhoInf) set to 1
    Not including porosity effects

surfaceFieldValue inlet_massFlow:
    operation     = sum


surfaceFieldValue outlet_massFlow:
    operation     = sum


Time = 1

smoothSolver:  Solving for Ux, Initial residual = 0.861136, Final residual = 0.0823845, No Iterations 4
smoothSolver:  Solving for Uy, Initial residual = 0.8591, Final residual = 0.0753964, No Iterations 5
smoothSolver:  Solving for Uz, Initial residual = 0.857922, Final residual = 0.0806187, No Iterations 5
GAMG:  Solving for p, Initial residual = 1, Final residual = 0.00725132, No Iterations 9
GAMG:  Solving for p, Initial residual = 0.0369947, Final residual = 0.000232702, No Iterations 4
GAMG:  Solving for p, Initial residual = 0.0039801, Final residual = 3.81794e-05, No Iterations 7
time step continuity errors : sum local = 5.22443e-06, global = -3.46247e-07, cumulative = -3.46247e-07
smoothSolver:  Solving for omega, Initial residual = 0.862922, Final residual = 0.0713462, No Iterations 6
smoothSolver:  Solving for k, Initial residual = 1, Final residual = 0.064797, No Iterations 2
ExecutionTime = 1.35 s  ClockTime = 2 s

fieldMinMax minMax write:
    min(mag(U)) = 0 in cell 2435 at location (7.52075 0.0928397 -0.036906) on processor 0
    max(mag(U)) = 1.05312 in cell 61570 at location (0.0167171 0.0340055 0.0340363) on processor 3
    min(p) = -0.00900515 in cell 58543 at location (9.82366 -0.0907537 -0.0360996) on processor 0
    max(p) = 0.142164 in cell 61547 at location (0.00517686 0.0237791 0.0238201) on processor 3

forces forces write:
    Sum of forces
        Total    : (0.0028868 6.74177e-07 -2.33038e-05)
        Pressure : (-1.13091e-08 6.76687e-07 -2.3319e-05)
        Viscous  : (0.00288681 -2.50936e-09 1.52105e-08)
    Sum of moments
        Total    : (7.55011e-11 0.000167684 -5.55277e-05)
        Pressure : (1.25941e-10 0.000167806 -5.54921e-05)
        Viscous  : (-5.04401e-11 -1.21288e-07 -3.55729e-08)
    writing force and moment files.

surfaceFieldValue inlet_massFlow write:
    total faces   = 336
    total area    = 0.0312949

    sum(inlet) of phi = -0.0312949

surfaceFieldValue outlet_massFlow write:
    total faces   = 336
    total area    = 0.0312959

    sum(outlet) of phi = 0.0312948

Time = 2

smoothSolver:  Solving for Ux, Initial residual = 0.642501, Final residual = 0.0582905, No Iterations 9
smoothSolver:  Solving for Uy, Initial residual = 0.809985, Final residual = 0.0719596, No Iterations 10
smoothSolver:  Solving for Uz, Initial residual = 0.799358, Final residual = 0.0781575, No Iterations 10
GAMG:  Solving for p, Initial residual = 0.0902549, Final residual = 0.000676453, No Iterations 5
GAMG:  Solving for p, Initial residual = 0.0147133, Final residual = 0.000139027, No Iterations 5
GAMG:  Solving for p, Initial residual = 0.00217037, Final residual = 1.19867e-05, No Iterations 7
time step continuity errors : sum local = 2.45749e-06, global = -6.47703e-08, cumulative = -4.11017e-07
smoothSolver:  Solving for omega, Initial residual = 0.508757, Final residual = 0.018408, No Iterations 1
bounding omega, min: -0.000326867 max: 10791.3 average: 36.9285
smoothSolver:  Solving for k, Initial residual = 0.379509, Final residual = 0.032501, No Iterations 2
ExecutionTime = 2.04 s  ClockTime = 3 s

fieldMinMax minMax write:
    min(mag(U)) = 0 in cell 2435 at location (7.52075 0.0928397 -0.036906) on processor 0
    max(mag(U)) = 1.01636 in cell 61547 at location (0.00517686 0.0237791 0.0238201) on processor 3
    min(p) = -0.00820443 in cell 58543 at location (9.82366 -0.0907537 -0.0360996) on processor 0
    max(p) = 0.118122 in cell 61547 at location (0.00517686 0.0237791 0.0238201) on processor 3

forces forces write:
    Sum of forces
        Total    : (0.00286139 1.71059e-05 1.1873e-05)
        Pressure : (8.06519e-08 1.71139e-05 1.18721e-05)
        Viscous  : (0.0028613 -7.98118e-09 9.1791e-10)
    Sum of moments
        Total    : (8.09197e-10 4.19307e-06 4.49999e-05)
        Pressure : (8.43366e-10 4.27806e-06 4.5017e-05)
        Viscous  : (-3.41698e-11 -8.49832e-08 -1.70681e-08)
    writing force and moment files.

surfaceFieldValue inlet_massFlow write:
    sum(inlet) of phi = -0.0312949

surfaceFieldValue outlet_massFlow write:
    sum(outlet) of phi = 0.0312949

Time = 3

smoothSolver:  Solving for Ux, Initial residual = 0.350365, Final residual = 0.0347519, No Iterations 8
smoothSolver:  Solving for Uy, Initial residual = 0.773891, Final residual = 0.0678655, No Iterations 8
smoothSolver:  Solving for Uz, Initial residual = 0.758247, Final residual = 0.0658602, No Iterations 9
GAMG:  Solving for p, Initial residual = 0.058918, Final residual = 0.000422405, No Iterations 4
GAMG:  Solving for p, Initial residual = 0.00742985, Final residual = 6.33655e-05, No Iterations 5
GAMG:  Solving for p, Initial residual = 0.00158161, Final residual = 1.46422e-05, No Iterations 4
time step continuity errors : sum local = 3.19185e-06, global = -6.43643e-07, cumulative = -1.05466e-06
smoothSolver:  Solving for omega, Initial residual = 0.450875, Final residual = 0.00983911, No Iterations 2
bounding omega, min: -0.00328412 max: 3237.61 average: 17.3039
smoothSolver:  Solving for k, Initial residual = 0.271317, Final residual = 0.018128, No Iterations 3
ExecutionTime = 2.75 s  ClockTime = 4 s

fieldMinMax minMax write:
    min(mag(U)) = 0 in cell 2435 at location (7.52075 0.0928397 -0.036906) on processor 0
    max(mag(U)) = 1.01255 in cell 63129 at location (0.0149648 -0.0142102 0.0965946) on processor 3
    min(p) = -0.00781582 in cell 58543 at location (9.82366 -0.0907537 -0.0360996) on processor 0
    max(p) = 0.0999558 in cell 61547 at location (0.00517686 0.0237791 0.0238201) on processor 3

forces forces write:
    Sum of forces
        Total    : (0.0028382 -6.23903e-06 2.3517e-06)
        Pressure : (2.14621e-07 -6.2383e-06 2.35374e-06)
        Viscous  : (0.00283799 -7.29545e-10 -2.03352e-09)
    Sum of moments
        Total    : (1.14404e-09 3.71713e-06 4.33222e-06)
        Pressure : (1.17692e-09 3.78982e-06 4.32164e-06)
        Viscous  : (-3.28782e-11 -7.2697e-08 1.05817e-08)
    writing force and moment files.

surfaceFieldValue inlet_massFlow write:
    sum(inlet) of phi = -0.0312949

surfaceFieldValue outlet_massFlow write:
    sum(outlet) of phi = 0.0312947

Time = 4

smoothSolver:  Solving for Ux, Initial residual = 0.165745, Final residual = 0.0159637, No Iterations 12
smoothSolver:  Solving for Uy, Initial residual = 0.663222, Final residual = 0.0657899, No Iterations 12
smoothSolver:  Solving for Uz, Initial residual = 0.65327, Final residual = 0.0600436, No Iterations 13
GAMG:  Solving for p, Initial residual = 0.0431028, Final residual = 0.000272781, No Iterations 4
GAMG:  Solving for p, Initial residual = 0.00530255, Final residual = 4.59881e-05, No Iterations 5
GAMG:  Solving for p, Initial residual = 0.00105897, Final residual = 9.27805e-06, No Iterations 5
time step continuity errors : sum local = 2.07727e-06, global = 3.47505e-07, cumulative = -7.07156e-07
smoothSolver:  Solving for omega, Initial residual = 0.350069, Final residual = 0.0296661, No Iterations 2
bounding omega, min: -0.00013604 max: 1018.36 average: 10.6947
smoothSolver:  Solving for k, Initial residual = 0.215706, Final residual = 0.0122415, No Iterations 4
ExecutionTime = 3.48 s  ClockTime = 4 s

fieldMinMax minMax write:
    min(mag(U)) = 0 in cell 2435 at location (7.52075 0.0928397 -0.036906) on processor 0
    max(mag(U)) = 1.01076 in cell 63129 at location (0.0149648 -0.0142102 0.0965946) on processor 3
    min(p) = -0.00733354 in cell 58543 at location (9.82366 -0.0907537 -0.0360996) on processor 0
    max(p) = 0.0906933 in cell 61547 at location (0.00517686 0.0237791 0.0238201) on processor 3

forces forces write:
    Sum of forces
        Total    : (0.0028153 -2.32079e-06 -3.35383e-07)
        Pressure : (3.29175e-07 -2.32169e-06 -3.32523e-07)
        Viscous  : (0.00281497 9.03432e-10 -2.86023e-09)
    Sum of moments
        Total    : (1.09621e-09 4.82065e-06 4.87524e-06)
        Pressure : (1.16386e-09 4.89914e-06 4.85322e-06)
        Viscous  : (-6.76503e-11 -7.84904e-08 2.20122e-08)
    writing force and moment files.

surfaceFieldValue inlet_massFlow write:
    sum(inlet) of phi = -0.0312949

surfaceFieldValue outlet_massFlow write:
    sum(outlet) of phi = 0.031295

Time = 5

smoothSolver:  Solving for Ux, Initial residual = 0.105974, Final residual = 0.0103332, No Iterations 13
smoothSolver:  Solving for Uy, Initial residual = 0.553461, Final residual = 0.0544995, No Iterations 14
smoothSolver:  Solving for Uz, Initial residual = 0.556355, Final residual = 0.0528289, No Iterations 14
GAMG:  Solving for p, Initial residual = 0.0361709, Final residual = 0.000133026, No Iterations 4
GAMG:  Solving for p, Initial residual = 0.00459675, Final residual = 4.21241e-05, No Iterations 3
GAMG:  Solving for p, Initial residual = 0.000895557, Final residual = 6.81005e-06, No Iterations 5
time step continuity errors : sum local = 1.54769e-06, global = 2.56304e-07, cumulative = -4.50851e-07
smoothSolver:  Solving for omega, Initial residual = 0.219851, Final residual = 0.0193258, No Iterations 3
bounding omega, min: -2.97496e-06 max: 441.747 average: 7.83493
smoothSolver:  Solving for k, Initial residual = 0.168463, Final residual = 0.0142718, No Iterations 4
ExecutionTime = 4.14 s  ClockTime = 5 s

fieldMinMax minMax write:
    min(mag(U)) = 0 in cell 2435 at location (7.52075 0.0928397 -0.036906) on processor 0
    max(mag(U)) = 1.00986 in cell 63129 at location (0.0149648 -0.0142102 0.0965946) on processor 3
    min(p) = -0.00688948 in cell 58543 at location (9.82366 -0.0907537 -0.0360996) on processor 0
    max(p) = 0.0897383 in cell 63127 at location (0.00460452 -0.0143625 0.0965813) on processor 3

forces forces write:
    Sum of forces
        Total    : (0.00279515 -8.06422e-07 1.35943e-06)
        Pressure : (4.263e-07 -8.07389e-07 1.36218e-06)
        Viscous  : (0.00279473 9.66708e-10 -2.75727e-09)
    Sum of moments
        Total    : (1.08046e-09 -9.19637e-06 -3.03747e-06)
        Pressure : (1.16872e-09 -9.12359e-06 -3.05102e-06)
        Viscous  : (-8.82576e-11 -7.27874e-08 1.35558e-08)
    writing force and moment files.

surfaceFieldValue inlet_massFlow write:
    sum(inlet) of phi = -0.0312949

surfaceFieldValue outlet_massFlow write:
    sum(outlet) of phi = 0.031295

Time = 6

smoothSolver:  Solving for Ux, Initial residual = 0.0777058, Final residual = 0.00706071, No Iterations 14
smoothSolver:  Solving for Uy, Initial residual = 0.482722, Final residual = 0.0452587, No Iterations 15
smoothSolver:  Solving for Uz, Initial residual = 0.483725, Final residual = 0.0446155, No Iterations 15
GAMG:  Solving for p, Initial residual = 0.0321133, Final residual = 0.000292132, No Iterations 3
GAMG:  Solving for p, Initial residual = 0.00406243, Final residual = 3.69355e-05, No Iterations 3
GAMG:  Solving for p, Initial residual = 0.000948656, Final residual = 7.24974e-06, No Iterations 5
time step continuity errors : sum local = 1.6629e-06, global = -9.34962e-08, cumulative = -5.44348e-07
smoothSolver:  Solving for omega, Initial residual = 0.124514, Final residual = 0.00944257, No Iterations 4
bounding omega, min: -1.1583e-06 max: 250.145 average: 6.5062
smoothSolver:  Solving for k, Initial residual = 0.138656, Final residual = 0.00881685, No Iterations 5
ExecutionTime = 4.84 s  ClockTime = 6 s

fieldMinMax minMax write:
    min(mag(U)) = 0 in cell 2435 at location (7.52075 0.0928397 -0.036906) on processor 0
    max(mag(U)) = 1.01013 in cell 62183 at location (9.98336 0.0242419 0.0242945) on processor 0
    min(p) = -0.00649471 in cell 58543 at location (9.82366 -0.0907537 -0.0360996) on processor 0
    max(p) = 0.0899666 in cell 63127 at location (0.00460452 -0.0143625 0.0965813) on processor 3

forces forces write:
    Sum of forces
        Total    : (0.00277867 -1.57477e-06 5.62292e-07)
        Pressure : (5.13168e-07 -1.57644e-06 5.63613e-07)
        Viscous  : (0.00277815 1.67007e-09 -1.32182e-09)
    Sum of moments
        Total    : (1.11839e-09 -8.09128e-06 -1.00217e-05)
        Pressure : (1.22403e-09 -8.03069e-06 -1.00164e-05)
        Viscous  : (-1.05636e-10 -6.05938e-08 -5.30666e-09)
    writing force and moment files.

surfaceFieldValue inlet_massFlow write:
    sum(inlet) of phi = -0.0312949

surfaceFieldValue outlet_massFlow write:
    sum(outlet) of phi = 0.0312949

Time = 7

smoothSolver:  Solving for Ux, Initial residual = 0.0667985, Final residual = 0.00641315, No Iterations 13
smoothSolver:  Solving for Uy, Initial residual = 0.485069, Final residual = 0.0438432, No Iterations 13
smoothSolver:  Solving for Uz, Initial residual = 0.482551, Final residual = 0.0437813, No Iterations 13
GAMG:  Solving for p, Initial residual = 0.0301045, Final residual = 0.00022216, No Iterations 3
GAMG:  Solving for p, Initial residual = 0.00377827, Final residual = 3.17351e-05, No Iterations 3
GAMG:  Solving for p, Initial residual = 0.000859232, Final residual = 7.21121e-06, No Iterations 5
time step continuity errors : sum local = 1.66819e-06, global = -3.37825e-07, cumulative = -8.82173e-07
smoothSolver:  Solving for omega, Initial residual = 0.0755795, Final residual = 0.00455186, No Iterations 5
smoothSolver:  Solving for k, Initial residual = 0.117273, Final residual = 0.00851589, No Iterations 5
ExecutionTime = 5.55 s  ClockTime = 6 s

fieldMinMax minMax write:
    min(mag(U)) = 0 in cell 2435 at location (7.52075 0.0928397 -0.036906) on processor 0
    max(mag(U)) = 1.01207 in cell 62183 at location (9.98336 0.0242419 0.0242945) on processor 0
    min(p) = -0.00613641 in cell 58543 at location (9.82366 -0.0907537 -0.0360996) on processor 0
    max(p) = 0.0904531 in cell 63127 at location (0.00460452 -0.0143625 0.0965813) on processor 3

forces forces write:
    Sum of forces
        Total    : (0.00276687 1.3103e-06 3.70045e-06)
        Pressure : (5.86743e-07 1.3102e-06 3.70255e-06)
        Viscous  : (0.00276628 9.61764e-11 -2.09908e-09)
    Sum of moments
        Total    : (1.17159e-09 -1.04905e-05 -1.02998e-05)
        Pressure : (1.2882e-09 -1.04604e-05 -1.02606e-05)
        Viscous  : (-1.16607e-10 -3.00605e-08 -3.91877e-08)
    writing force and moment files.

surfaceFieldValue inlet_massFlow write:
    sum(inlet) of phi = -0.0312949

surfaceFieldValue outlet_massFlow write:
    sum(outlet) of phi = 0.0312948

Time = 8

smoothSolver:  Solving for Ux, Initial residual = 0.0556334, Final residual = 0.0053425, No Iterations 13
smoothSolver:  Solving for Uy, Initial residual = 0.484895, Final residual = 0.043036, No Iterations 12
smoothSolver:  Solving for Uz, Initial residual = 0.45928, Final residual = 0.0452975, No Iterations 12
GAMG:  Solving for p, Initial residual = 0.0276076, Final residual = 0.000209406, No Iterations 3
GAMG:  Solving for p, Initial residual = 0.00342587, Final residual = 3.03155e-05, No Iterations 3
GAMG:  Solving for p, Initial residual = 0.000801518, Final residual = 6.29053e-06, No Iterations 4
time step continuity errors : sum local = 1.46942e-06, global = 4.53191e-07, cumulative = -4.28982e-07
smoothSolver:  Solving for omega, Initial residual = 0.0507077, Final residual = 0.00381097, No Iterations 5
smoothSolver:  Solving for k, Initial residual = 0.102462, Final residual = 0.00777877, No Iterations 5
ExecutionTime = 6.13 s  ClockTime = 7 s

fieldMinMax minMax write:
    min(mag(U)) = 0 in cell 2435 at location (7.52075 0.0928397 -0.036906) on processor 0
    max(mag(U)) = 1.01393 in cell 62183 at location (9.98336 0.0242419 0.0242945) on processor 0
    min(p) = -0.00580205 in cell 58543 at location (9.82366 -0.0907537 -0.0360996) on processor 0
    max(p) = 0.0911606 in cell 63127 at location (0.00460452 -0.0143625 0.0965813) on processor 3

forces forces write:
    Sum of forces
        Total    : (0.00275976 -1.081e-06 1.51311e-06)
        Pressure : (6.50059e-07 -1.08074e-06 1.51483e-06)
        Viscous  : (0.00275911 -2.60214e-10 -1.71763e-09)
    Sum of moments
        Total    : (1.21731e-09 -9.02209e-06 -1.10589e-05)
        Pressure : (1.33891e-09 -9.04929e-06 -1.09669e-05)
        Viscous  : (-1.21605e-10 2.71958e-08 -9.20429e-08)
    writing force and moment files.

surfaceFieldValue inlet_massFlow write:
    sum(inlet) of phi = -0.0312949

surfaceFieldValue outlet_massFlow write:
    sum(outlet) of phi = 0.031295

Time = 9

smoothSolver:  Solving for Ux, Initial residual = 0.0473956, Final residual = 0.00461261, No Iterations 13
smoothSolver:  Solving for Uy, Initial residual = 0.425526, Final residual = 0.0424993, No Iterations 12
smoothSolver:  Solving for Uz, Initial residual = 0.411656, Final residual = 0.0378106, No Iterations 13
GAMG:  Solving for p, Initial residual = 0.0256038, Final residual = 0.000197847, No Iterations 3
GAMG:  Solving for p, Initial residual = 0.00315609, Final residual = 2.30456e-05, No Iterations 3
GAMG:  Solving for p, Initial residual = 0.000732639, Final residual = 7.18832e-06, No Iterations 4
time step continuity errors : sum local = 1.66654e-06, global = 5.28931e-07, cumulative = 9.99497e-08
smoothSolver:  Solving for omega, Initial residual = 0.0373815, Final residual = 0.00321882, No Iterations 5
smoothSolver:  Solving for k, Initial residual = 0.093248, Final residual = 0.00704459, No Iterations 5
ExecutionTime = 6.75 s  ClockTime = 8 s

fieldMinMax minMax write:
    min(mag(U)) = 0 in cell 2435 at location (7.52075 0.0928397 -0.036906) on processor 0
    max(mag(U)) = 1.01572 in cell 62183 at location (9.98336 0.0242419 0.0242945) on processor 0
    min(p) = -0.0054892 in cell 58543 at location (9.82366 -0.0907537 -0.0360996) on processor 0
    max(p) = 0.0917548 in cell 63127 at location (0.00460452 -0.0143625 0.0965813) on processor 3

forces forces write:
    Sum of forces
        Total    : (0.0027574 1.95837e-07 2.2121e-06)
        Pressure : (7.05668e-07 1.9807e-07 2.21483e-06)
        Viscous  : (0.0027567 -2.23367e-09 -2.73545e-09)
    Sum of moments
        Total    : (1.25345e-09 -1.08262e-05 -9.82849e-06)
        Pressure : (1.36755e-09 -1.09281e-05 -9.66672e-06)
        Viscous  : (-1.141e-10 1.01885e-07 -1.61764e-07)
    writing force and moment files.

surfaceFieldValue inlet_massFlow write:
    sum(inlet) of phi = -0.0312949

surfaceFieldValue outlet_massFlow write:
    sum(outlet) of phi = 0.0312951

Time = 10

smoothSolver:  Solving for Ux, Initial residual = 0.0409372, Final residual = 0.004045, No Iterations 13
smoothSolver:  Solving for Uy, Initial residual = 0.374778, Final residual = 0.0342418, No Iterations 14
smoothSolver:  Solving for Uz, Initial residual = 0.357221, Final residual = 0.0339681, No Iterations 14
GAMG:  Solving for p, Initial residual = 0.0232579, Final residual = 0.000185489, No Iterations 3
GAMG:  Solving for p, Initial residual = 0.00285041, Final residual = 2.43493e-05, No Iterations 3
GAMG:  Solving for p, Initial residual = 0.00067998, Final residual = 6.29966e-06, No Iterations 4
time step continuity errors : sum local = 1.49732e-06, global = 4.50632e-07, cumulative = 5.50582e-07
smoothSolver:  Solving for omega, Initial residual = 0.0293286, Final residual = 0.00273377, No Iterations 5
smoothSolver:  Solving for k, Initial residual = 0.0871204, Final residual = 0.00634722, No Iterations 5
ExecutionTime = 7.38 s  ClockTime = 8 s

fieldMinMax minMax write:
    min(mag(U)) = 0 in cell 2435 at location (7.52075 0.0928397 -0.036906) on processor 0
    max(mag(U)) = 1.01736 in cell 62183 at location (9.98336 0.0242419 0.0242945) on processor 0
    min(p) = -0.00521472 in cell 58543 at location (9.82366 -0.0907537 -0.0360996) on processor 0
    max(p) = 0.0925262 in cell 63127 at location (0.00460452 -0.0143625 0.0965813) on processor 3

forces forces write:
    Sum of forces
        Total    : (0.00275987 -1.45444e-06 5.40192e-07)
        Pressure : (7.53468e-07 -1.45117e-06 5.43825e-07)
        Viscous  : (0.00275912 -3.26904e-09 -3.63256e-09)
    Sum of moments
        Total    : (1.26784e-09 -7.91505e-06 -1.00272e-05)
        Pressure : (1.36864e-09 -8.11088e-06 -9.77877e-06)
        Viscous  : (-1.00795e-10 1.95826e-07 -2.484e-07)
    writing force and moment files.

surfaceFieldValue inlet_massFlow write:
    sum(inlet) of phi = -0.0312949

surfaceFieldValue outlet_massFlow write:
    sum(outlet) of phi = 0.031295

Time = 11

smoothSolver:  Solving for Ux, Initial residual = 0.0349919, Final residual = 0.00315623, No Iterations 14
smoothSolver:  Solving for Uy, Initial residual = 0.306346, Final residual = 0.027621, No Iterations 16
smoothSolver:  Solving for Uz, Initial residual = 0.303794, Final residual = 0.0302342, No Iterations 15
GAMG:  Solving for p, Initial residual = 0.0212741, Final residual = 0.000189275, No Iterations 3
GAMG:  Solving for p, Initial residual = 0.002676, Final residual = 2.2799e-05, No Iterations 4
GAMG:  Solving for p, Initial residual = 0.000711214, Final residual = 6.20895e-06, No Iterations 5
time step continuity errors : sum local = 1.48685e-06, global = 2.81551e-07, cumulative = 8.32133e-07
smoothSolver:  Solving for omega, Initial residual = 0.0238007, Final residual = 0.00232435, No Iterations 5
smoothSolver:  Solving for k, Initial residual = 0.0833725, Final residual = 0.00571475, No Iterations 5
ExecutionTime = 7.99 s  ClockTime = 9 s

fieldMinMax minMax write:
    min(mag(U)) = 0 in cell 2435 at location (7.52075 0.0928397 -0.036906) on processor 0
    max(mag(U)) = 1.01895 in cell 62183 at location (9.98336 0.0242419 0.0242945) on processor 0
    min(p) = -0.00496318 in cell 58543 at location (9.82366 -0.0907537 -0.0360996) on processor 0
    max(p) = 0.0933946 in cell 63127 at location (0.00460452 -0.0143625 0.0965813) on processor 3

forces forces write:
    Sum of forces
        Total    : (0.0027667 -5.40467e-07 6.28615e-07)
        Pressure : (7.94921e-07 -5.34999e-07 6.3496e-07)
        Viscous  : (0.00276591 -5.46839e-09 -6.34527e-09)
    Sum of moments
        Total    : (1.25805e-09 -6.15268e-06 -7.53211e-06)
        Pressure : (1.3643e-09 -6.46464e-06 -7.18248e-06)
        Viscous  : (-1.06248e-10 3.11961e-07 -3.4963e-07)
    writing force and moment files.

surfaceFieldValue inlet_massFlow write:
    sum(inlet) of phi = -0.0312949

surfaceFieldValue outlet_massFlow write:
    sum(outlet) of phi = 0.031295

Time = 12

smoothSolver:  Solving for Ux, Initial residual = 0.031401, Final residual = 0.00283349, No Iterations 14
smoothSolver:  Solving for Uy, Initial residual = 0.28561, Final residual = 0.025771, No Iterations 16
smoothSolver:  Solving for Uz, Initial residual = 0.28038, Final residual = 0.0279816, No Iterations 15
GAMG:  Solving for p, Initial residual = 0.0197586, Final residual = 0.000193704, No Iterations 3
GAMG:  Solving for p, Initial residual = 0.00257581, Final residual = 2.40552e-05, No Iterations 4
GAMG:  Solving for p, Initial residual = 0.000734473, Final residual = 6.52884e-06, No Iterations 5
time step continuity errors : sum local = 1.57409e-06, global = 3.29942e-07, cumulative = 1.16207e-06
smoothSolver:  Solving for omega, Initial residual = 0.0198414, Final residual = 0.00198307, No Iterations 5
smoothSolver:  Solving for k, Initial residual = 0.0813638, Final residual = 0.0051198, No Iterations 5
ExecutionTime = 8.66 s  ClockTime = 10 s

fieldMinMax minMax write:
    min(mag(U)) = 0 in cell 2435 at location (7.52075 0.0928397 -0.036906) on processor 0
    max(mag(U)) = 1.02047 in cell 62183 at location (9.98336 0.0242419 0.0242945) on processor 0
    min(p) = -0.0047277 in cell 58543 at location (9.82366 -0.0907537 -0.0360996) on processor 0
    max(p) = 0.0944352 in cell 63127 at location (0.00460452 -0.0143625 0.0965813) on processor 3

forces forces write:
    Sum of forces
        Total    : (0.0027779 -8.87566e-07 3.86219e-07)
        Pressure : (8.29884e-07 -8.79871e-07 3.96457e-07)
        Viscous  : (0.00277707 -7.69498e-09 -1.02375e-08)
    Sum of moments
        Total    : (1.22174e-09 -3.68175e-06 -6.21295e-06)
        Pressure : (1.34312e-09 -4.12324e-06 -5.7495e-06)
        Viscous  : (-1.21386e-10 4.41492e-07 -4.63445e-07)
    writing force and moment files.

surfaceFieldValue inlet_massFlow write:
    sum(inlet) of phi = -0.0312949

surfaceFieldValue outlet_massFlow write:
    sum(outlet) of phi = 0.031295

Time = 13

smoothSolver:  Solving for Ux, Initial residual = 0.0285594, Final residual = 0.00259324, No Iterations 14
smoothSolver:  Solving for Uy, Initial residual = 0.264209, Final residual = 0.0239039, No Iterations 16
smoothSolver:  Solving for Uz, Initial residual = 0.258136, Final residual = 0.025773, No Iterations 15
GAMG:  Solving for p, Initial residual = 0.0184527, Final residual = 6.38278e-05, No Iterations 4
GAMG:  Solving for p, Initial residual = 0.00241055, Final residual = 2.06303e-05, No Iterations 3
GAMG:  Solving for p, Initial residual = 0.000711591, Final residual = 6.1896e-06, No Iterations 3
time step continuity errors : sum local = 1.50223e-06, global = 5.77077e-08, cumulative = 1.21978e-06
smoothSolver:  Solving for omega, Initial residual = 0.0168184, Final residual = 0.0010961, No Iterations 6
smoothSolver:  Solving for k, Initial residual = 0.081732, Final residual = 0.00733096, No Iterations 4
ExecutionTime = 9.29 s  ClockTime = 10 s

fieldMinMax minMax write:
    min(mag(U)) = 0 in cell 2435 at location (7.52075 0.0928397 -0.036906) on processor 0
    max(mag(U)) = 1.02193 in cell 62183 at location (9.98336 0.0242419 0.0242945) on processor 0
    min(p) = -0.00451218 in cell 58543 at location (9.82366 -0.0907537 -0.0360996) on processor 0
    max(p) = 0.0956193 in cell 63127 at location (0.00460452 -0.0143625 0.0965813) on processor 3

forces forces write:
    Sum of forces
        Total    : (0.00286668 -3.67284e-07 2.65325e-08)
        Pressure : (8.58839e-07 -3.56691e-07 4.06484e-08)
        Viscous  : (0.00286583 -1.05921e-08 -1.41159e-08)
    Sum of moments
        Total    : (1.18785e-09 -2.0353e-06 -3.81283e-06)
        Pressure : (1.30637e-09 -1.93996e-06 -4.08308e-06)
        Viscous  : (-1.1852e-10 -9.53348e-08 2.70258e-07)
    writing force and moment files.

surfaceFieldValue inlet_massFlow write:
    sum(inlet) of phi = -0.0312949

surfaceFieldValue outlet_massFlow write:
    sum(outlet) of phi = 0.0312949

Time = 14

smoothSolver:  Solving for Ux, Initial residual = 0.0267065, Final residual = 0.00240952, No Iterations 14
smoothSolver:  Solving for Uy, Initial residual = 0.242686, Final residual = 0.0218686, No Iterations 16
smoothSolver:  Solving for Uz, Initial residual = 0.23697, Final residual = 0.0236402, No Iterations 15
GAMG:  Solving for p, Initial residual = 0.017392, Final residual = 0.000103952, No Iterations 5
GAMG:  Solving for p, Initial residual = 0.00258507, Final residual = 2.205e-05, No Iterations 6
GAMG:  Solving for p, Initial residual = 0.000825718, Final residual = 6.79801e-06, No Iterations 5
time step continuity errors : sum local = 1.69152e-06, global = -1.29924e-07, cumulative = 1.08986e-06
smoothSolver:  Solving for omega, Initial residual = 0.0144564, Final residual = 0.0014139, No Iterations 5
smoothSolver:  Solving for k, Initial residual = 0.0852561, Final residual = 0.0065839, No Iterations 4
ExecutionTime = 9.92 s  ClockTime = 11 s

fieldMinMax minMax write:
    min(mag(U)) = 0 in cell 2435 at location (7.52075 0.0928397 -0.036906) on processor 0
    max(mag(U)) = 1.02339 in cell 62183 at location (9.98336 0.0242419 0.0242945) on processor 0
    min(p) = -0.00431677 in cell 63759 at location (9.9954 -0.0145734 0.0965533) on processor 0
    max(p) = 0.0990009 in cell 63127 at location (0.00460452 -0.0143625 0.0965813) on processor 3

forces forces write:
    Sum of forces
        Total    : (0.00315426 -4.74644e-07 -6.60465e-08)
        Pressure : (8.72292e-07 -4.62735e-07 -4.94066e-08)
        Viscous  : (0.00315339 -1.19097e-08 -1.66399e-08)
    Sum of moments
        Total    : (1.16707e-09 7.20311e-07 -4.25662e-06)
        Pressure : (1.28034e-09 6.48057e-07 -4.42902e-06)
        Viscous  : (-1.13271e-10 7.22537e-08 1.72403e-07)
    writing force and moment files.

surfaceFieldValue inlet_massFlow write:
    sum(inlet) of phi = -0.0312949

surfaceFieldValue outlet_massFlow write:
    sum(outlet) of phi = 0.0312948

Time = 15

smoothSolver:  Solving for Ux, Initial residual = 0.0264626, Final residual = 0.00258269, No Iterations 13
smoothSolver:  Solving for Uy, Initial residual = 0.229485, Final residual = 0.0225392, No Iterations 15
smoothSolver:  Solving for Uz, Initial residual = 0.222021, Final residual = 0.021493, No Iterations 15
GAMG:  Solving for p, Initial residual = 0.0163735, Final residual = 0.000163406, No Iterations 7
GAMG:  Solving for p, Initial residual = 0.00380154, Final residual = 3.442e-05, No Iterations 6
GAMG:  Solving for p, Initial residual = 0.000917644, Final residual = 8.30122e-06, No Iterations 7
time step continuity errors : sum local = 2.22874e-06, global = -2.09486e-07, cumulative = 8.80373e-07
smoothSolver:  Solving for omega, Initial residual = 0.0128718, Final residual = 0.00118712, No Iterations 5
smoothSolver:  Solving for k, Initial residual = 0.0841296, Final residual = 0.00591393, No Iterations 4
ExecutionTime = 10.67 s  ClockTime = 12 s

fieldMinMax minMax write:
    min(mag(U)) = 0 in cell 2435 at location (7.52075 0.0928397 -0.036906) on processor 0
    max(mag(U)) = 1.02515 in cell 59234 at location (9.98336 -0.0243204 -0.0242159) on processor 0
    min(p) = -0.0044089 in cell 63759 at location (9.9954 -0.0145734 0.0965533) on processor 0
    max(p) = 0.108405 in cell 63127 at location (0.00460452 -0.0143625 0.0965813) on processor 3

forces forces write:
    Sum of forces
        Total    : (0.00356507 -3.65368e-07 -2.85484e-07)
        Pressure : (8.51738e-07 -3.51835e-07 -2.67082e-07)
        Viscous  : (0.00356422 -1.35333e-08 -1.84014e-08)
    Sum of moments
        Total    : (1.0809e-09 5.03039e-06 -6.22133e-06)
        Pressure : (1.23869e-09 2.31964e-06 -3.93322e-06)
        Viscous  : (-1.57791e-10 2.71075e-06 -2.28811e-06)
    writing force and moment files.

surfaceFieldValue inlet_massFlow write:
    sum(inlet) of phi = -0.0312949

surfaceFieldValue outlet_massFlow write:
    sum(outlet) of phi = 0.0312948

Time = 16

smoothSolver:  Solving for Ux, Initial residual = 0.0273982, Final residual = 0.00252377, No Iterations 13
smoothSolver:  Solving for Uy, Initial residual = 0.234001, Final residual = 0.022988, No Iterations 14
smoothSolver:  Solving for Uz, Initial residual = 0.222293, Final residual = 0.0221845, No Iterations 14
GAMG:  Solving for p, Initial residual = 0.0144306, Final residual = 0.000131933, No Iterations 10
GAMG:  Solving for p, Initial residual = 0.00415762, Final residual = 4.05635e-05, No Iterations 4
GAMG:  Solving for p, Initial residual = 0.000856596, Final residual = 6.98252e-06, No Iterations 8
time step continuity errors : sum local = 2.06863e-06, global = -9.91821e-08, cumulative = 7.81191e-07
smoothSolver:  Solving for omega, Initial residual = 0.0118734, Final residual = 0.00101067, No Iterations 5
smoothSolver:  Solving for k, Initial residual = 0.0820869, Final residual = 0.0054163, No Iterations 4
ExecutionTime = 11.38 s  ClockTime = 12 s

fieldMinMax minMax write:
    min(mag(U)) = 0 in cell 2435 at location (7.52075 0.0928397 -0.036906) on processor 0
    max(mag(U)) = 1.02727 in cell 59234 at location (9.98336 -0.0243204 -0.0242159) on processor 0
    min(p) = -0.00448051 in cell 63759 at location (9.9954 -0.0145734 0.0965533) on processor 0
    max(p) = 0.121733 in cell 63127 at location (0.00460452 -0.0143625 0.0965813) on processor 3

forces forces write:
    Sum of forces
        Total    : (0.00410598 -1.17753e-07 -2.33944e-07)
        Pressure : (8.07346e-07 -1.02236e-07 -2.14239e-07)
        Viscous  : (0.00410518 -1.55174e-08 -1.97047e-08)
    Sum of moments
        Total    : (9.81473e-10 1.13387e-05 -1.03688e-05)
        Pressure : (1.20919e-09 5.28645e-06 -4.86687e-06)
        Viscous  : (-2.27717e-10 6.05224e-06 -5.50193e-06)
    writing force and moment files.

surfaceFieldValue inlet_massFlow write:
    sum(inlet) of phi = -0.0312949

surfaceFieldValue outlet_massFlow write:
    sum(outlet) of phi = 0.0312949

Time = 17

smoothSolver:  Solving for Ux, Initial residual = 0.0288932, Final residual = 0.00257054, No Iterations 13
smoothSolver:  Solving for Uy, Initial residual = 0.229814, Final residual = 0.0216865, No Iterations 14
smoothSolver:  Solving for Uz, Initial residual = 0.214941, Final residual = 0.0205742, No Iterations 14
GAMG:  Solving for p, Initial residual = 0.0124638, Final residual = 7.28308e-05, No Iterations 10
GAMG:  Solving for p, Initial residual = 0.00453546, Final residual = 2.70405e-05, No Iterations 3
GAMG:  Solving for p, Initial residual = 0.000665503, Final residual = 5.28079e-06, No Iterations 5
time step continuity errors : sum local = 1.74925e-06, global = -2.35996e-07, cumulative = 5.45196e-07
smoothSolver:  Solving for omega, Initial residual = 0.0113561, Final residual = 0.000881829, No Iterations 5
smoothSolver:  Solving for k, Initial residual = 0.077739, Final residual = 0.0048814, No Iterations 4
ExecutionTime = 12.03 s  ClockTime = 13 s

fieldMinMax minMax write:
    min(mag(U)) = 0 in cell 2435 at location (7.52075 0.0928397 -0.036906) on processor 0
    max(mag(U)) = 1.02975 in cell 59234 at location (9.98336 -0.0243204 -0.0242159) on processor 0
    min(p) = -0.00453106 in cell 63759 at location (9.9954 -0.0145734 0.0965533) on processor 0
    max(p) = 0.139386 in cell 63127 at location (0.00460452 -0.0143625 0.0965813) on processor 3

forces forces write:
    Sum of forces
        Total    : (0.00471392 -3.0135e-07 -2.58036e-07)
        Pressure : (7.37399e-07 -2.85151e-07 -2.38165e-07)
        Viscous  : (0.00471318 -1.61995e-08 -1.98707e-08)
    Sum of moments
        Total    : (9.4588e-10 1.49449e-05 -1.28663e-05)
        Pressure : (1.17316e-09 8.015e-06 -6.54549e-06)
        Viscous  : (-2.27277e-10 6.92994e-06 -6.32077e-06)
    writing force and moment files.

surfaceFieldValue inlet_massFlow write:
    sum(inlet) of phi = -0.0312949

surfaceFieldValue outlet_massFlow write:
    sum(outlet) of phi = 0.0312948

Time = 18

smoothSolver:  Solving for Ux, Initial residual = 0.0304506, Final residual = 0.00268678, No Iterations 13
smoothSolver:  Solving for Uy, Initial residual = 0.225519, Final residual = 0.0209185, No Iterations 14
smoothSolver:  Solving for Uz, Initial residual = 0.20902, Final residual = 0.019639, No Iterations 14
GAMG:  Solving for p, Initial residual = 0.010617, Final residual = 5.67079e-05, No Iterations 10
GAMG:  Solving for p, Initial residual = 0.00439449, Final residual = 2.96199e-05, No Iterations 3
GAMG:  Solving for p, Initial residual = 0.000560851, Final residual = 3.34681e-06, No Iterations 5
time step continuity errors : sum local = 1.24007e-06, global = -1.67487e-07, cumulative = 3.77708e-07
smoothSolver:  Solving for omega, Initial residual = 0.0111823, Final residual = 0.000792515, No Iterations 5
smoothSolver:  Solving for k, Initial residual = 0.0720094, Final residual = 0.00431896, No Iterations 4
ExecutionTime = 12.69 s  ClockTime = 14 s

fieldMinMax minMax write:
    min(mag(U)) = 0 in cell 2435 at location (7.52075 0.0928397 -0.036906) on processor 0
    max(mag(U)) = 1.03259 in cell 59234 at location (9.98336 -0.0243204 -0.0242159) on processor 0
    min(p) = -0.00456149 in cell 63759 at location (9.9954 -0.0145734 0.0965533) on processor 0
    max(p) = 0.159759 in cell 63127 at location (0.00460452 -0.0143625 0.0965813) on processor 3

forces forces write:
    Sum of forces
        Total    : (0.00532635 2.29675e-07 3.73659e-07)
        Pressure : (6.49922e-07 2.44834e-07 3.92839e-07)
        Viscous  : (0.0053257 -1.51593e-08 -1.91798e-08)
    Sum of moments
        Total    : (9.13529e-10 1.59279e-05 -1.35147e-05)
        Pressure : (1.14591e-09 8.29892e-06 -6.52974e-06)
        Viscous  : (-2.32383e-10 7.62896e-06 -6.98492e-06)
    writing force and moment files.

surfaceFieldValue inlet_massFlow write:
    sum(inlet) of phi = -0.0312949

surfaceFieldValue outlet_massFlow write:
    sum(outlet) of phi = 0.0312948

Time = 19

smoothSolver:  Solving for Ux, Initial residual = 0.0315713, Final residual = 0.00278787, No Iterations 13
smoothSolver:  Solving for Uy, Initial residual = 0.216579, Final residual = 0.0198327, No Iterations 14
smoothSolver:  Solving for Uz, Initial residual = 0.19965, Final residual = 0.0185212, No Iterations 14
GAMG:  Solving for p, Initial residual = 0.00914195, Final residual = 4.97749e-05, No Iterations 10
GAMG:  Solving for p, Initial residual = 0.00402243, Final residual = 2.26157e-05, No Iterations 3
GAMG:  Solving for p, Initial residual = 0.000439196, Final residual = 3.37991e-06, No Iterations 5
time step continuity errors : sum local = 1.38952e-06, global = -1.22202e-07, cumulative = 2.55507e-07
smoothSolver:  Solving for omega, Initial residual = 0.0112838, Final residual = 0.00112312, No Iterations 4
smoothSolver:  Solving for k, Initial residual = 0.0656049, Final residual = 0.00380417, No Iterations 4
ExecutionTime = 13.54 s  ClockTime = 14 s

fieldMinMax minMax write:
    min(mag(U)) = 0 in cell 2435 at location (7.52075 0.0928397 -0.036906) on processor 0
    max(mag(U)) = 1.03623 in cell 60021 at location (5.01245 0.0097959 -0.00991995) on processor 1
    min(p) = -0.00457096 in cell 63759 at location (9.9954 -0.0145734 0.0965533) on processor 0
    max(p) = 0.181262 in cell 63127 at location (0.00460452 -0.0143625 0.0965813) on processor 3

forces forces write:
    Sum of forces
        Total    : (0.00591881 3.28178e-07 1.09289e-07)
        Pressure : (5.52864e-07 3.40639e-07 1.25418e-07)
        Viscous  : (0.00591826 -1.24615e-08 -1.61283e-08)
    Sum of moments
        Total    : (8.59109e-10 1.72747e-05 -1.4266e-05)
        Pressure : (1.09255e-09 9.17978e-06 -6.82219e-06)
        Viscous  : (-2.33437e-10 8.09496e-06 -7.44383e-06)
    writing force and moment files.

surfaceFieldValue inlet_massFlow write:
    sum(inlet) of phi = -0.0312949

surfaceFieldValue outlet_massFlow write:
    sum(outlet) of phi = 0.0312948

Time = 20

smoothSolver:  Solving for Ux, Initial residual = 0.0320764, Final residual = 0.00283449, No Iterations 13
smoothSolver:  Solving for Uy, Initial residual = 0.210028, Final residual = 0.0207586, No Iterations 13
smoothSolver:  Solving for Uz, Initial residual = 0.192966, Final residual = 0.017165, No Iterations 14
GAMG:  Solving for p, Initial residual = 0.0083821, Final residual = 4.75634e-05, No Iterations 10
GAMG:  Solving for p, Initial residual = 0.0037532, Final residual = 2.12549e-05, No Iterations 3
GAMG:  Solving for p, Initial residual = 0.000396052, Final residual = 2.7602e-06, No Iterations 5
time step continuity errors : sum local = 1.20851e-06, global = -2.0174e-08, cumulative = 2.35333e-07
smoothSolver:  Solving for omega, Initial residual = 0.0116823, Final residual = 0.00107781, No Iterations 4
smoothSolver:  Solving for k, Initial residual = 0.0583252, Final residual = 0.00330885, No Iterations 4
ExecutionTime = 14.19 s  ClockTime = 15 s

fieldMinMax minMax write:
    min(mag(U)) = 0 in cell 2435 at location (7.52075 0.0928397 -0.036906) on processor 0
    max(mag(U)) = 1.04069 in cell 60644 at location (9.98858 0.00965614 -0.00935994) on processor 0
    min(p) = -0.00455193 in cell 63759 at location (9.9954 -0.0145734 0.0965533) on processor 0
    max(p) = 0.203193 in cell 63127 at location (0.00460452 -0.0143625 0.0965813) on processor 3

forces forces write:
    Sum of forces
        Total    : (0.00646696 5.06894e-07 5.86578e-07)
        Pressure : (4.49797e-07 5.15076e-07 5.99921e-07)
        Viscous  : (0.00646651 -8.18242e-09 -1.33433e-08)
    Sum of moments
        Total    : (8.36223e-10 1.5442e-05 -1.53836e-05)
        Pressure : (1.05335e-09 7.20721e-06 -7.79182e-06)
        Viscous  : (-2.17131e-10 8.23476e-06 -7.59175e-06)
    writing force and moment files.

surfaceFieldValue inlet_massFlow write:
    sum(inlet) of phi = -0.0312949

surfaceFieldValue outlet_massFlow write:
    sum(outlet) of phi = 0.0312949

Time = 21

smoothSolver:  Solving for Ux, Initial residual = 0.0341899, Final residual = 0.00327117, No Iterations 12
smoothSolver:  Solving for Uy, Initial residual = 0.234207, Final residual = 0.0218481, No Iterations 12
smoothSolver:  Solving for Uz, Initial residual = 0.214402, Final residual = 0.0198094, No Iterations 12
GAMG:  Solving for p, Initial residual = 0.00847656, Final residual = 5.35431e-05, No Iterations 10
GAMG:  Solving for p, Initial residual = 0.00349599, Final residual = 2.21262e-05, No Iterations 3
GAMG:  Solving for p, Initial residual = 0.00037112, Final residual = 2.71026e-06, No Iterations 5
time step continuity errors : sum local = 1.24444e-06, global = 4.19719e-08, cumulative = 2.77305e-07
smoothSolver:  Solving for omega, Initial residual = 0.0122566, Final residual = 0.00105173, No Iterations 4
smoothSolver:  Solving for k, Initial residual = 0.0511701, Final residual = 0.00286703, No Iterations 4
ExecutionTime = 14.83 s  ClockTime = 16 s

fieldMinMax minMax write:
    min(mag(U)) = 0 in cell 2435 at location (7.52075 0.0928397 -0.036906) on processor 0
    max(mag(U)) = 1.04528 in cell 60674 at location (9.98858 -0.00965166 0.00937346) on processor 0
    min(p) = -0.00450629 in cell 63759 at location (9.9954 -0.0145734 0.0965533) on processor 0
    max(p) = 0.224512 in cell 63127 at location (0.00460452 -0.0143625 0.0965813) on processor 3

forces forces write:
    Sum of forces
        Total    : (0.00695085 7.50966e-07 8.3647e-07)
        Pressure : (3.46188e-07 7.55445e-07 8.47053e-07)
        Viscous  : (0.00695051 -4.4791e-09 -1.05821e-08)
    Sum of moments
        Total    : (8.29474e-10 1.48903e-05 -1.48837e-05)
        Pressure : (1.00294e-09 6.92542e-06 -7.51607e-06)
        Viscous  : (-1.73469e-10 7.96487e-06 -7.36765e-06)
    writing force and moment files.

surfaceFieldValue inlet_massFlow write:
    sum(inlet) of phi = -0.0312949

surfaceFieldValue outlet_massFlow write:
    sum(outlet) of phi = 0.0312949

Time = 22

smoothSolver:  Solving for Ux, Initial residual = 0.0371284, Final residual = 0.00369724, No Iterations 11
smoothSolver:  Solving for Uy, Initial residual = 0.279793, Final residual = 0.0249146, No Iterations 10
smoothSolver:  Solving for Uz, Initial residual = 0.270318, Final residual = 0.0268691, No Iterations 9
GAMG:  Solving for p, Initial residual = 0.00886206, Final residual = 5.2871e-05, No Iterations 10
GAMG:  Solving for p, Initial residual = 0.00326034, Final residual = 2.17898e-05, No Iterations 3
GAMG:  Solving for p, Initial residual = 0.000375345, Final residual = 2.99471e-06, No Iterations 5
time step continuity errors : sum local = 1.44004e-06, global = 7.18553e-08, cumulative = 3.4916e-07
smoothSolver:  Solving for omega, Initial residual = 0.013079, Final residual = 0.00104736, No Iterations 4
smoothSolver:  Solving for k, Initial residual = 0.0445075, Final residual = 0.00247489, No Iterations 4
ExecutionTime = 15.5 s  ClockTime = 16 s

fieldMinMax minMax write:
    min(mag(U)) = 0 in cell 2435 at location (7.52075 0.0928397 -0.036906) on processor 0
    max(mag(U)) = 1.0505 in cell 60644 at location (9.98858 0.00965614 -0.00935994) on processor 0
    min(p) = -0.00443673 in cell 63759 at location (9.9954 -0.0145734 0.0965533) on processor 0
    max(p) = 0.244704 in cell 63127 at location (0.00460452 -0.0143625 0.0965813) on processor 3

forces forces write:
    Sum of forces
        Total    : (0.00735443 1.07557e-06 1.48367e-06)
        Pressure : (2.44213e-07 1.07767e-06 1.49324e-06)
        Viscous  : (0.00735419 -2.09583e-09 -9.5673e-09)
    Sum of moments
        Total    : (8.22949e-10 1.09448e-05 -1.32376e-05)
        Pressure : (9.52502e-10 3.69478e-06 -6.52097e-06)
        Viscous  : (-1.29552e-10 7.25e-06 -6.71663e-06)
    writing force and moment files.

surfaceFieldValue inlet_massFlow write:
    sum(inlet) of phi = -0.0312949

surfaceFieldValue outlet_massFlow write:
    sum(outlet) of phi = 0.0312949

Time = 23

smoothSolver:  Solving for Ux, Initial residual = 0.0328996, Final residual = 0.00321576, No Iterations 12
smoothSolver:  Solving for Uy, Initial residual = 0.222529, Final residual = 0.0206709, No Iterations 12
smoothSolver:  Solving for Uz, Initial residual = 0.237968, Final residual = 0.0232463, No Iterations 11
GAMG:  Solving for p, Initial residual = 0.00719576, Final residual = 6.27569e-05, No Iterations 10
GAMG:  Solving for p, Initial residual = 0.00254465, Final residual = 2.38401e-05, No Iterations 5
GAMG:  Solving for p, Initial residual = 0.000294649, Final residual = 1.97601e-06, No Iterations 9
time step continuity errors : sum local = 1.07547e-06, global = -3.87399e-08, cumulative = 3.1042e-07
smoothSolver:  Solving for omega, Initial residual = 0.0137429, Final residual = 0.0010565, No Iterations 4
smoothSolver:  Solving for k, Initial residual = 0.038767, Final residual = 0.00214402, No Iterations 4
ExecutionTime = 16.25 s  ClockTime = 17 s

fieldMinMax minMax write:
    min(mag(U)) = 0 in cell 2435 at location (7.52075 0.0928397 -0.036906) on processor 0
    max(mag(U)) = 1.05466 in cell 59453 at location (9.96535 -0.00984141 -0.00979418) on processor 0
    min(p) = -0.00437043 in cell 63759 at location (9.9954 -0.0145734 0.0965533) on processor 0
    max(p) = 0.263051 in cell 63127 at location (0.00460452 -0.0143625 0.0965813) on processor 3

forces forces write:
    Sum of forces
        Total    : (0.0076617 9.86624e-07 1.57813e-06)
        Pressure : (1.47801e-07 9.8776e-07 1.58863e-06)
        Viscous  : (0.00766156 -1.13607e-09 -1.04995e-08)
    Sum of moments
        Total    : (8.58106e-10 5.9514e-06 -1.05245e-05)
        Pressure : (8.93496e-10 -1.27474e-07 -4.89983e-06)
        Viscous  : (-3.53897e-11 6.07887e-06 -5.62462e-06)
    writing force and moment files.

surfaceFieldValue inlet_massFlow write:
    sum(inlet) of phi = -0.0312949

surfaceFieldValue outlet_massFlow write:
    sum(outlet) of phi = 0.0312949

Time = 24

smoothSolver:  Solving for Ux, Initial residual = 0.0295306, Final residual = 0.00272475, No Iterations 13
smoothSolver:  Solving for Uy, Initial residual = 0.188842, Final residual = 0.0181909, No Iterations 13
smoothSolver:  Solving for Uz, Initial residual = 0.182913, Final residual = 0.0163446, No Iterations 14
GAMG:  Solving for p, Initial residual = 0.00613418, Final residual = 5.87302e-05, No Iterations 12
GAMG:  Solving for p, Initial residual = 0.00198863, Final residual = 1.41784e-05, No Iterations 7
GAMG:  Solving for p, Initial residual = 0.000306764, Final residual = 2.40939e-06, No Iterations 9
time step continuity errors : sum local = 1.43507e-06, global = 1.44026e-07, cumulative = 4.54446e-07
smoothSolver:  Solving for omega, Initial residual = 0.0140314, Final residual = 0.00107002, No Iterations 4
smoothSolver:  Solving for k, Initial residual = 0.0334309, Final residual = 0.00183755, No Iterations 4
ExecutionTime = 16.99 s  ClockTime = 18 s

fieldMinMax minMax write:
    min(mag(U)) = 0 in cell 2435 at location (7.52075 0.0928397 -0.036906) on processor 0
    max(mag(U)) = 1.05956 in cell 59390 at location (5.03734 0.00979528 -0.00992005) on processor 1
    min(p) = -0.00429238 in cell 63759 at location (9.9954 -0.0145734 0.0965533) on processor 0
    max(p) = 0.278746 in cell 63127 at location (0.00460452 -0.0143625 0.0965813) on processor 3

forces forces write:
    Sum of forces
        Total    : (0.00786818 6.49706e-07 1.11034e-06)
        Pressure : (6.08088e-08 6.5005e-07 1.12335e-06)
        Viscous  : (0.00786812 -3.44574e-10 -1.30095e-08)
    Sum of moments
        Total    : (9.47923e-10 4.73055e-06 -9.5702e-06)
        Pressure : (8.35594e-10 2.24292e-07 -5.44215e-06)
        Viscous  : (1.12329e-10 4.50626e-06 -4.12804e-06)
    writing force and moment files.

surfaceFieldValue inlet_massFlow write:
    sum(inlet) of phi = -0.0312949

surfaceFieldValue outlet_massFlow write:
    sum(outlet) of phi = 0.0312949

Time = 25

smoothSolver:  Solving for Ux, Initial residual = 0.0279593, Final residual = 0.00261074, No Iterations 13
smoothSolver:  Solving for Uy, Initial residual = 0.159488, Final residual = 0.0148305, No Iterations 14
smoothSolver:  Solving for Uz, Initial residual = 0.149839, Final residual = 0.01322, No Iterations 14
GAMG:  Solving for p, Initial residual = 0.00573628, Final residual = 4.12488e-05, No Iterations 12
GAMG:  Solving for p, Initial residual = 0.0016227, Final residual = 1.56007e-05, No Iterations 5
GAMG:  Solving for p, Initial residual = 0.000247695, Final residual = 1.94262e-06, No Iterations 9
time step continuity errors : sum local = 1.2002e-06, global = 1.79423e-08, cumulative = 4.72388e-07
smoothSolver:  Solving for omega, Initial residual = 0.0138815, Final residual = 0.00107455, No Iterations 4
smoothSolver:  Solving for k, Initial residual = 0.028658, Final residual = 0.00156364, No Iterations 4
ExecutionTime = 17.74 s  ClockTime = 19 s

fieldMinMax minMax write:
    min(mag(U)) = 0 in cell 2435 at location (7.52075 0.0928397 -0.036906) on processor 0
    max(mag(U)) = 1.06472 in cell 57494 at location (9.86703 0.00982428 -0.0100567) on processor 0
    min(p) = -0.00419521 in cell 63759 at location (9.9954 -0.0145734 0.0965533) on processor 0
    max(p) = 0.291356 in cell 63127 at location (0.00460452 -0.0143625 0.0965813) on processor 3

forces forces write:
    Sum of forces
        Total    : (0.00798021 5.62921e-07 1.48277e-06)
        Pressure : (-1.41362e-08 5.64357e-07 1.49907e-06)
        Viscous  : (0.00798022 -1.43611e-09 -1.62995e-08)
    Sum of moments
        Total    : (1.04929e-09 -1.50602e-06 -6.67012e-06)
        Pressure : (7.7924e-10 -4.16857e-06 -4.3056e-06)
        Viscous  : (2.7005e-10 2.66255e-06 -2.36452e-06)
    writing force and moment files.

surfaceFieldValue inlet_massFlow write:
    sum(inlet) of phi = -0.0312949

surfaceFieldValue outlet_massFlow write:
    sum(outlet) of phi = 0.0312949

Time = 26

smoothSolver:  Solving for Ux, Initial residual = 0.0262485, Final residual = 0.00248086, No Iterations 13
smoothSolver:  Solving for Uy, Initial residual = 0.142489, Final residual = 0.0131323, No Iterations 14
smoothSolver:  Solving for Uz, Initial residual = 0.143852, Final residual = 0.0129629, No Iterations 14
GAMG:  Solving for p, Initial residual = 0.00554632, Final residual = 4.49212e-05, No Iterations 10
GAMG:  Solving for p, Initial residual = 0.00125883, Final residual = 9.15329e-06, No Iterations 8
GAMG:  Solving for p, Initial residual = 0.000252125, Final residual = 1.75451e-06, No Iterations 5
time step continuity errors : sum local = 1.11069e-06, global = -3.17973e-08, cumulative = 4.40591e-07
smoothSolver:  Solving for omega, Initial residual = 0.013272, Final residual = 0.00106073, No Iterations 4
smoothSolver:  Solving for k, Initial residual = 0.0245771, Final residual = 0.00132739, No Iterations 4
ExecutionTime = 18.46 s  ClockTime = 19 s

fieldMinMax minMax write:
    min(mag(U)) = 0 in cell 2435 at location (7.52075 0.0928397 -0.036906) on processor 0
    max(mag(U)) = 1.06985 in cell 56922 at location (9.867 -0.00990642 -0.0100077) on processor 0
    min(p) = -0.00408635 in cell 63759 at location (9.9954 -0.0145734 0.0965533) on processor 0
    max(p) = 0.300404 in cell 63127 at location (0.00460452 -0.0143625 0.0965813) on processor 3

forces forces write:
    Sum of forces
        Total    : (0.00800859 5.01083e-07 1.76295e-06)
        Pressure : (-7.42554e-08 5.06686e-07 1.78555e-06)
        Viscous  : (0.00800867 -5.60286e-09 -2.25965e-08)
    Sum of moments
        Total    : (1.17738e-09 -8.75784e-06 -3.15754e-06)
        Pressure : (7.25085e-10 -9.47725e-06 -2.67044e-06)
        Viscous  : (4.52298e-10 7.19414e-07 -4.87098e-07)
    writing force and moment files.

surfaceFieldValue inlet_massFlow write:
    sum(inlet) of phi = -0.0312949

surfaceFieldValue outlet_massFlow write:
    sum(outlet) of phi = 0.0312949

Time = 27

smoothSolver:  Solving for Ux, Initial residual = 0.0244379, Final residual = 0.0023381, No Iterations 13
smoothSolver:  Solving for Uy, Initial residual = 0.127031, Final residual = 0.0121095, No Iterations 14
smoothSolver:  Solving for Uz, Initial residual = 0.134046, Final residual = 0.012333, No Iterations 14
GAMG:  Solving for p, Initial residual = 0.00539373, Final residual = 5.268e-05, No Iterations 8
GAMG:  Solving for p, Initial residual = 0.00108601, Final residual = 9.42431e-06, No Iterations 8
GAMG:  Solving for p, Initial residual = 0.000229059, Final residual = 1.88514e-06, No Iterations 4
time step continuity errors : sum local = 1.2081e-06, global = 3.56914e-07, cumulative = 7.97504e-07
smoothSolver:  Solving for omega, Initial residual = 0.0125258, Final residual = 0.00102979, No Iterations 4
smoothSolver:  Solving for k, Initial residual = 0.0213261, Final residual = 0.00212192, No Iterations 3
ExecutionTime = 19.13 s  ClockTime = 20 s

fieldMinMax minMax write:
    min(mag(U)) = 0 in cell 2435 at location (7.52075 0.0928397 -0.036906) on processor 0
    max(mag(U)) = 1.07481 in cell 58126 at location (9.89188 0.0098153 -0.0100464) on processor 0
    min(p) = -0.00397178 in cell 63759 at location (9.9954 -0.0145734 0.0965533) on processor 0
    max(p) = 0.305811 in cell 63127 at location (0.00460452 -0.0143625 0.0965813) on processor 3

forces forces write:
    Sum of forces
        Total    : (0.00795569 3.13756e-07 1.88063e-06)
        Pressure : (-1.18698e-07 3.23371e-07 1.90951e-06)
        Viscous  : (0.00795581 -9.61497e-09 -2.88793e-08)
    Sum of moments
        Total    : (1.29035e-09 -1.48795e-05 -1.7121e-07)
        Pressure : (6.69501e-10 -1.38876e-05 -1.35339e-06)
        Viscous  : (6.20847e-10 -9.91893e-07 1.18218e-06)
    writing force and moment files.

surfaceFieldValue inlet_massFlow write:
    sum(inlet) of phi = -0.0312949

surfaceFieldValue outlet_massFlow write:
    sum(outlet) of phi = 0.031295

Time = 28

smoothSolver:  Solving for Ux, Initial residual = 0.0226056, Final residual = 0.00218615, No Iterations 13
smoothSolver:  Solving for Uy, Initial residual = 0.11681, Final residual = 0.010957, No Iterations 14
smoothSolver:  Solving for Uz, Initial residual = 0.128408, Final residual = 0.0116187, No Iterations 14
GAMG:  Solving for p, Initial residual = 0.00532189, Final residual = 4.93844e-05, No Iterations 8
GAMG:  Solving for p, Initial residual = 0.000998581, Final residual = 9.24531e-06, No Iterations 8
GAMG:  Solving for p, Initial residual = 0.000224468, Final residual = 1.77804e-06, No Iterations 4
time step continuity errors : sum local = 1.14159e-06, global = 2.22048e-07, cumulative = 1.01955e-06
smoothSolver:  Solving for omega, Initial residual = 0.0115921, Final residual = 0.000969632, No Iterations 4
smoothSolver:  Solving for k, Initial residual = 0.0186955, Final residual = 0.00182564, No Iterations 3
ExecutionTime = 19.85 s  ClockTime = 21 s

fieldMinMax minMax write:
    min(mag(U)) = 0 in cell 2435 at location (7.52075 0.0928397 -0.036906) on processor 0
    max(mag(U)) = 1.0795 in cell 57554 at location (9.89191 -0.009898 -0.00999876) on processor 0
    min(p) = -0.00385451 in cell 63759 at location (9.9954 -0.0145734 0.0965533) on processor 0
    max(p) = 0.307799 in cell 63127 at location (0.00460452 -0.0143625 0.0965813) on processor 3

forces forces write:
    Sum of forces
        Total    : (0.0078558 9.1787e-08 1.9051e-06)
        Pressure : (-1.48074e-07 1.04883e-07 1.93955e-06)
        Viscous  : (0.00785595 -1.30959e-08 -3.4454e-08)
    Sum of moments
        Total    : (1.35318e-09 -2.02744e-05 2.45488e-06)
        Pressure : (6.06049e-10 -1.77528e-05 -2.22457e-07)
        Viscous  : (7.47131e-10 -2.52163e-06 2.67734e-06)
    writing force and moment files.

surfaceFieldValue inlet_massFlow write:
    sum(inlet) of phi = -0.0312949

surfaceFieldValue outlet_massFlow write:
    sum(outlet) of phi = 0.031295

Time = 29

smoothSolver:  Solving for Ux, Initial residual = 0.0208101, Final residual = 0.0020334, No Iterations 13
smoothSolver:  Solving for Uy, Initial residual = 0.112258, Final residual = 0.0100034, No Iterations 14
smoothSolver:  Solving for Uz, Initial residual = 0.127147, Final residual = 0.0125176, No Iterations 13
GAMG:  Solving for p, Initial residual = 0.00534616, Final residual = 4.8413e-05, No Iterations 8
GAMG:  Solving for p, Initial residual = 0.000998721, Final residual = 9.19322e-06, No Iterations 8
GAMG:  Solving for p, Initial residual = 0.000234434, Final residual = 1.86132e-06, No Iterations 6
time step continuity errors : sum local = 1.18655e-06, global = 3.29448e-07, cumulative = 1.349e-06
smoothSolver:  Solving for omega, Initial residual = 0.0105077, Final residual = 0.000888291, No Iterations 4
smoothSolver:  Solving for k, Initial residual = 0.0170136, Final residual = 0.00159756, No Iterations 3
ExecutionTime = 20.58 s  ClockTime = 22 s

fieldMinMax minMax write:
    min(mag(U)) = 0 in cell 2435 at location (7.52075 0.0928397 -0.036906) on processor 0
    max(mag(U)) = 1.08394 in cell 58126 at location (9.89188 0.0098153 -0.0100464) on processor 0
    min(p) = -0.00373635 in cell 63759 at location (9.9954 -0.0145734 0.0965533) on processor 0
    max(p) = 0.307016 in cell 63127 at location (0.00460452 -0.0143625 0.0965813) on processor 3

forces forces write:
    Sum of forces
        Total    : (0.00772385 -7.8549e-08 1.96994e-06)
        Pressure : (-1.65142e-07 -6.30996e-08 2.01022e-06)
        Viscous  : (0.00772402 -1.54493e-08 -4.02745e-08)
    Sum of moments
        Total    : (1.44487e-09 -2.5074e-05 5.57443e-06)
        Pressure : (5.47737e-10 -2.13142e-05 1.6797e-06)
        Viscous  : (8.97134e-10 -3.7598e-06 3.89473e-06)
    writing force and moment files.

surfaceFieldValue inlet_massFlow write:
    sum(inlet) of phi = -0.0312949

surfaceFieldValue outlet_massFlow write:
    sum(outlet) of phi = 0.031295

Time = 30

smoothSolver:  Solving for Ux, Initial residual = 0.0191128, Final residual = 0.00188583, No Iterations 13
smoothSolver:  Solving for Uy, Initial residual = 0.111777, Final residual = 0.0106736, No Iterations 13
smoothSolver:  Solving for Uz, Initial residual = 0.129727, Final residual = 0.0123813, No Iterations 13
GAMG:  Solving for p, Initial residual = 0.00542661, Final residual = 5.00099e-05, No Iterations 8
GAMG:  Solving for p, Initial residual = 0.00106824, Final residual = 1.01947e-05, No Iterations 8
GAMG:  Solving for p, Initial residual = 0.000253761, Final residual = 2.43562e-06, No Iterations 4
time step continuity errors : sum local = 1.53026e-06, global = 5.09223e-07, cumulative = 1.85822e-06
smoothSolver:  Solving for omega, Initial residual = 0.00949904, Final residual = 0.000812402, No Iterations 4
smoothSolver:  Solving for k, Initial residual = 0.0158721, Final residual = 0.00143205, No Iterations 3
ExecutionTime = 21.3 s  ClockTime = 22 s

fieldMinMax minMax write:
    min(mag(U)) = 0 in cell 2435 at location (7.52075 0.0928397 -0.036906) on processor 0
    max(mag(U)) = 1.08812 in cell 57554 at location (9.89191 -0.009898 -0.00999876) on processor 0
    min(p) = -0.00361935 in cell 63759 at location (9.9954 -0.0145734 0.0965533) on processor 0
    max(p) = 0.304001 in cell 63127 at location (0.00460452 -0.0143625 0.0965813) on processor 3

forces forces write:
    Sum of forces
        Total    : (0.00757387 -2.10419e-07 1.84942e-06)
        Pressure : (-1.72147e-07 -1.94031e-07 1.89403e-06)
        Viscous  : (0.00757404 -1.63884e-08 -4.46057e-08)
    Sum of moments
        Total    : (1.48528e-09 -2.83613e-05 8.64272e-06)
        Pressure : (4.90897e-10 -2.37184e-05 3.87841e-06)
        Viscous  : (9.94383e-10 -4.64294e-06 4.76431e-06)
    writing force and moment files.

surfaceFieldValue inlet_massFlow write:
    sum(inlet) of phi = -0.0312949

surfaceFieldValue outlet_massFlow write:
    sum(outlet) of phi = 0.031295

Time = 31

smoothSolver:  Solving for Ux, Initial residual = 0.0175526, Final residual = 0.0017471, No Iterations 13
smoothSolver:  Solving for Uy, Initial residual = 0.114002, Final residual = 0.0105675, No Iterations 13
smoothSolver:  Solving for Uz, Initial residual = 0.133333, Final residual = 0.012325, No Iterations 13
GAMG:  Solving for p, Initial residual = 0.00551974, Final residual = 5.36753e-05, No Iterations 8
GAMG:  Solving for p, Initial residual = 0.00119354, Final residual = 1.05382e-05, No Iterations 8
GAMG:  Solving for p, Initial residual = 0.000269111, Final residual = 2.11969e-06, No Iterations 4
time step continuity errors : sum local = 1.30493e-06, global = 2.81135e-07, cumulative = 2.13936e-06
smoothSolver:  Solving for omega, Initial residual = 0.00864084, Final residual = 0.000749038, No Iterations 4
smoothSolver:  Solving for k, Initial residual = 0.0152322, Final residual = 0.00132358, No Iterations 3
ExecutionTime = 22.03 s  ClockTime = 23 s

fieldMinMax minMax write:
    min(mag(U)) = 0 in cell 2435 at location (7.52075 0.0928397 -0.036906) on processor 0
    max(mag(U)) = 1.09205 in cell 58126 at location (9.89188 0.0098153 -0.0100464) on processor 0
    min(p) = -0.00350523 in cell 63759 at location (9.9954 -0.0145734 0.0965533) on processor 0
    max(p) = 0.299249 in cell 63127 at location (0.00460452 -0.0143625 0.0965813) on processor 3

forces forces write:
    Sum of forces
        Total    : (0.00741815 -3.62667e-07 1.64404e-06)
        Pressure : (-1.71152e-07 -3.47441e-07 1.69086e-06)
        Viscous  : (0.00741832 -1.5226e-08 -4.68225e-08)
    Sum of moments
        Total    : (1.50416e-09 -3.03391e-05 1.10392e-05)
        Pressure : (4.36721e-10 -2.51799e-05 5.76665e-06)
        Viscous  : (1.06744e-09 -5.15918e-06 5.27256e-06)
    writing force and moment files.

surfaceFieldValue inlet_massFlow write:
    sum(inlet) of phi = -0.0312949

surfaceFieldValue outlet_massFlow write:
    sum(outlet) of phi = 0.031295

Time = 32

smoothSolver:  Solving for Ux, Initial residual = 0.0161606, Final residual = 0.00141884, No Iterations 14
smoothSolver:  Solving for Uy, Initial residual = 0.117135, Final residual = 0.0105065, No Iterations 13
smoothSolver:  Solving for Uz, Initial residual = 0.137615, Final residual = 0.0124569, No Iterations 13
GAMG:  Solving for p, Initial residual = 0.00571199, Final residual = 5.48281e-05, No Iterations 8
GAMG:  Solving for p, Initial residual = 0.00134281, Final residual = 9.5945e-06, No Iterations 8
GAMG:  Solving for p, Initial residual = 0.000265779, Final residual = 2.28577e-06, No Iterations 4
time step continuity errors : sum local = 1.37191e-06, global = -1.03588e-07, cumulative = 2.03577e-06
smoothSolver:  Solving for omega, Initial residual = 0.00792074, Final residual = 0.000694864, No Iterations 4
smoothSolver:  Solving for k, Initial residual = 0.0150614, Final residual = 0.00126714, No Iterations 3
ExecutionTime = 22.72 s  ClockTime = 24 s

fieldMinMax minMax write:
    min(mag(U)) = 0 in cell 2435 at location (7.52075 0.0928397 -0.036906) on processor 0
    max(mag(U)) = 1.09576 in cell 56922 at location (9.867 -0.00990642 -0.0100077) on processor 0
    min(p) = -0.00339445 in cell 63759 at location (9.9954 -0.0145734 0.0965533) on processor 0
    max(p) = 0.293099 in cell 63127 at location (0.00460452 -0.0143625 0.0965813) on processor 3

forces forces write:
    Sum of forces
        Total    : (0.0072643 -4.86683e-07 1.31342e-06)
        Pressure : (-1.6352e-07 -4.73317e-07 1.36014e-06)
        Viscous  : (0.00726446 -1.33662e-08 -4.6713e-08)
    Sum of moments
        Total    : (1.51618e-09 -3.03409e-05 1.29572e-05)
        Pressure : (3.89291e-10 -2.49962e-05 7.53252e-06)
        Viscous  : (1.12689e-09 -5.34477e-06 5.42469e-06)
    writing force and moment files.

surfaceFieldValue inlet_massFlow write:
    sum(inlet) of phi = -0.0312949

surfaceFieldValue outlet_massFlow write:
    sum(outlet) of phi = 0.0312949

Time = 33

smoothSolver:  Solving for Ux, Initial residual = 0.0149016, Final residual = 0.00131205, No Iterations 14
smoothSolver:  Solving for Uy, Initial residual = 0.125294, Final residual = 0.0115648, No Iterations 13
smoothSolver:  Solving for Uz, Initial residual = 0.146149, Final residual = 0.0135484, No Iterations 13
GAMG:  Solving for p, Initial residual = 0.00583727, Final residual = 5.38493e-05, No Iterations 8
GAMG:  Solving for p, Initial residual = 0.00138798, Final residual = 1.34901e-05, No Iterations 6
GAMG:  Solving for p, Initial residual = 0.000248674, Final residual = 2.38054e-06, No Iterations 8
time step continuity errors : sum local = 1.39095e-06, global = 5.82795e-08, cumulative = 2.09405e-06
smoothSolver:  Solving for omega, Initial residual = 0.00738093, Final residual = 0.000653201, No Iterations 4
smoothSolver:  Solving for k, Initial residual = 0.0149255, Final residual = 0.00122701, No Iterations 3
ExecutionTime = 23.45 s  ClockTime = 24 s

fieldMinMax minMax write:
    min(mag(U)) = 0 in cell 2435 at location (7.52075 0.0928397 -0.036906) on processor 0
    max(mag(U)) = 1.09931 in cell 57494 at location (9.86703 0.00982428 -0.0100567) on processor 0
    min(p) = -0.00328667 in cell 63759 at location (9.9954 -0.0145734 0.0965533) on processor 0
    max(p) = 0.286518 in cell 63127 at location (0.00460452 -0.0143625 0.0965813) on processor 3

forces forces write:
    Sum of forces
        Total    : (0.00712177 -5.92006e-07 1.03773e-06)
        Pressure : (-1.53608e-07 -5.80967e-07 1.08256e-06)
        Viscous  : (0.00712193 -1.10388e-08 -4.4835e-08)
    Sum of moments
        Total    : (1.50185e-09 -2.91475e-05 1.39378e-05)
        Pressure : (3.4214e-10 -2.38554e-05 8.61441e-06)
        Viscous  : (1.15971e-09 -5.29214e-06 5.32335e-06)
    writing force and moment files.

surfaceFieldValue inlet_massFlow write:
    sum(inlet) of phi = -0.0312949

surfaceFieldValue outlet_massFlow write:
    sum(outlet) of phi = 0.0312949

Time = 34

smoothSolver:  Solving for Ux, Initial residual = 0.0138317, Final residual = 0.00121877, No Iterations 14
smoothSolver:  Solving for Uy, Initial residual = 0.127164, Final residual = 0.0115427, No Iterations 13
smoothSolver:  Solving for Uz, Initial residual = 0.148657, Final residual = 0.013645, No Iterations 13
GAMG:  Solving for p, Initial residual = 0.00590233, Final residual = 5.12079e-05, No Iterations 8
GAMG:  Solving for p, Initial residual = 0.00140846, Final residual = 1.22592e-05, No Iterations 6
GAMG:  Solving for p, Initial residual = 0.000235304, Final residual = 2.20932e-06, No Iterations 8
time step continuity errors : sum local = 1.25498e-06, global = 6.12423e-08, cumulative = 2.15529e-06
smoothSolver:  Solving for omega, Initial residual = 0.00708259, Final residual = 0.000623053, No Iterations 4
smoothSolver:  Solving for k, Initial residual = 0.014779, Final residual = 0.00119986, No Iterations 3
ExecutionTime = 24.18 s  ClockTime = 25 s

fieldMinMax minMax write:
    min(mag(U)) = 0 in cell 2435 at location (7.52075 0.0928397 -0.036906) on processor 0
    max(mag(U)) = 1.10269 in cell 56922 at location (9.867 -0.00990642 -0.0100077) on processor 0
    min(p) = -0.00318238 in cell 63759 at location (9.9954 -0.0145734 0.0965533) on processor 0
    max(p) = 0.279762 in cell 63127 at location (0.00460452 -0.0143625 0.0965813) on processor 3

forces forces write:
    Sum of forces
        Total    : (0.00699555 -7.01991e-07 7.13599e-07)
        Pressure : (-1.42443e-07 -6.95195e-07 7.58039e-07)
        Viscous  : (0.00699569 -6.79615e-09 -4.444e-08)
    Sum of moments
        Total    : (1.47086e-09 -2.65831e-05 1.38155e-05)
        Pressure : (3.02751e-10 -2.1533e-05 8.75316e-06)
        Viscous  : (1.16811e-09 -5.0501e-06 5.06238e-06)
    writing force and moment files.

surfaceFieldValue inlet_massFlow write:
    sum(inlet) of phi = -0.0312949

surfaceFieldValue outlet_massFlow write:
    sum(outlet) of phi = 0.0312949

Time = 35

smoothSolver:  Solving for Ux, Initial residual = 0.0129997, Final residual = 0.00129672, No Iterations 13
smoothSolver:  Solving for Uy, Initial residual = 0.124836, Final residual = 0.011211, No Iterations 13
smoothSolver:  Solving for Uz, Initial residual = 0.146855, Final residual = 0.0133979, No Iterations 13
GAMG:  Solving for p, Initial residual = 0.00589562, Final residual = 4.79092e-05, No Iterations 8
GAMG:  Solving for p, Initial residual = 0.00136056, Final residual = 1.09705e-05, No Iterations 6
GAMG:  Solving for p, Initial residual = 0.000225159, Final residual = 1.70885e-06, No Iterations 8
time step continuity errors : sum local = 9.44291e-07, global = 4.17456e-08, cumulative = 2.19704e-06
smoothSolver:  Solving for omega, Initial residual = 0.00698431, Final residual = 0.000601585, No Iterations 4
smoothSolver:  Solving for k, Initial residual = 0.0146841, Final residual = 0.00118762, No Iterations 3
ExecutionTime = 24.89 s  ClockTime = 26 s

fieldMinMax minMax write:
    min(mag(U)) = 0 in cell 2435 at location (7.52075 0.0928397 -0.036906) on processor 0
    max(mag(U)) = 1.10591 in cell 55598 at location (9.79252 0.00978358 -0.00996105) on processor 0
    min(p) = -0.00308123 in cell 63759 at location (9.9954 -0.0145734 0.0965533) on processor 0
    max(p) = 0.273348 in cell 63127 at location (0.00460452 -0.0143625 0.0965813) on processor 3

forces forces write:
    Sum of forces
        Total    : (0.00689005 -6.05444e-07 4.00812e-07)
        Pressure : (-1.32253e-07 -6.01151e-07 4.43263e-07)
        Viscous  : (0.00689018 -4.2928e-09 -4.24517e-08)
    Sum of moments
        Total    : (1.42846e-09 -2.31197e-05 1.41405e-05)
        Pressure : (2.66538e-10 -1.84076e-05 9.4605e-06)
        Viscous  : (1.16192e-09 -4.71214e-06 4.68004e-06)
    writing force and moment files.

surfaceFieldValue inlet_massFlow write:
    sum(inlet) of phi = -0.0312949

surfaceFieldValue outlet_massFlow write:
    sum(outlet) of phi = 0.0312949

Time = 36

smoothSolver:  Solving for Ux, Initial residual = 0.0123394, Final residual = 0.00122185, No Iterations 13
smoothSolver:  Solving for Uy, Initial residual = 0.120433, Final residual = 0.0106053, No Iterations 13
smoothSolver:  Solving for Uz, Initial residual = 0.142719, Final residual = 0.0128133, No Iterations 13
GAMG:  Solving for p, Initial residual = 0.00590272, Final residual = 4.28926e-05, No Iterations 8
GAMG:  Solving for p, Initial residual = 0.0013402, Final residual = 1.2501e-05, No Iterations 4
GAMG:  Solving for p, Initial residual = 0.00020951, Final residual = 1.60057e-06, No Iterations 10
time step continuity errors : sum local = 8.61077e-07, global = 4.22925e-08, cumulative = 2.23933e-06
smoothSolver:  Solving for omega, Initial residual = 0.0070167, Final residual = 0.000587443, No Iterations 4
smoothSolver:  Solving for k, Initial residual = 0.0145928, Final residual = 0.00117852, No Iterations 3
ExecutionTime = 25.58 s  ClockTime = 27 s

fieldMinMax minMax write:
    min(mag(U)) = 0 in cell 2435 at location (7.52075 0.0928397 -0.036906) on processor 0
    max(mag(U)) = 1.10902 in cell 55598 at location (9.79252 0.00978358 -0.00996105) on processor 0
    min(p) = -0.00298356 in cell 63759 at location (9.9954 -0.0145734 0.0965533) on processor 0
    max(p) = 0.267163 in cell 63127 at location (0.00460452 -0.0143625 0.0965813) on processor 3

forces forces write:
    Sum of forces
        Total    : (0.00680558 -4.82772e-07 2.08799e-07)
        Pressure : (-1.22281e-07 -4.81887e-07 2.4893e-07)
        Viscous  : (0.0068057 -8.85307e-10 -4.01309e-08)
    Sum of moments
        Total    : (1.38668e-09 -1.96903e-05 1.42711e-05)
        Pressure : (2.36209e-10 -1.54086e-05 1.00595e-05)
        Viscous  : (1.15047e-09 -4.28165e-06 4.21158e-06)
    writing force and moment files.

surfaceFieldValue inlet_massFlow write:
    sum(inlet) of phi = -0.0312949

surfaceFieldValue outlet_massFlow write:
    sum(outlet) of phi = 0.0312949

Time = 37

smoothSolver:  Solving for Ux, Initial residual = 0.0117955, Final residual = 0.00115568, No Iterations 13
smoothSolver:  Solving for Uy, Initial residual = 0.115861, Final residual = 0.0114288, No Iterations 12
smoothSolver:  Solving for Uz, Initial residual = 0.137961, Final residual = 0.0122484, No Iterations 13
GAMG:  Solving for p, Initial residual = 0.00588394, Final residual = 3.7251e-05, No Iterations 8
GAMG:  Solving for p, Initial residual = 0.00127495, Final residual = 9.52572e-06, No Iterations 4
GAMG:  Solving for p, Initial residual = 0.000203864, Final residual = 1.47576e-06, No Iterations 8
time step continuity errors : sum local = 7.74071e-07, global = 2.44969e-08, cumulative = 2.26383e-06
smoothSolver:  Solving for omega, Initial residual = 0.00714579, Final residual = 0.00057923, No Iterations 4
smoothSolver:  Solving for k, Initial residual = 0.0144786, Final residual = 0.00117234, No Iterations 3
ExecutionTime = 26.34 s  ClockTime = 27 s

fieldMinMax minMax write:
    min(mag(U)) = 0 in cell 2435 at location (7.52075 0.0928397 -0.036906) on processor 0
    max(mag(U)) = 1.11204 in cell 55598 at location (9.79252 0.00978358 -0.00996105) on processor 0
    min(p) = -0.00289 in cell 63759 at location (9.9954 -0.0145734 0.0965533) on processor 0
    max(p) = 0.261527 in cell 63127 at location (0.00460452 -0.0143625 0.0965813) on processor 3

forces forces write:
    Sum of forces
        Total    : (0.00674274 -4.83037e-07 -3.79899e-08)
        Pressure : (-1.1397e-07 -4.85155e-07 -8.49466e-10)
        Viscous  : (0.00674286 2.11863e-09 -3.71405e-08)
    Sum of moments
        Total    : (1.33359e-09 -1.60053e-05 1.34667e-05)
        Pressure : (2.11316e-10 -1.22269e-05 9.80607e-06)
        Viscous  : (1.12228e-09 -3.77846e-06 3.66065e-06)
    writing force and moment files.

surfaceFieldValue inlet_massFlow write:
    sum(inlet) of phi = -0.0312949

surfaceFieldValue outlet_massFlow write:
    sum(outlet) of phi = 0.0312949

Time = 38

smoothSolver:  Solving for Ux, Initial residual = 0.0113555, Final residual = 0.00109942, No Iterations 13
smoothSolver:  Solving for Uy, Initial residual = 0.108253, Final residual = 0.0105333, No Iterations 12
smoothSolver:  Solving for Uz, Initial residual = 0.131655, Final residual = 0.0117956, No Iterations 13
GAMG:  Solving for p, Initial residual = 0.0058537, Final residual = 3.40761e-05, No Iterations 8
GAMG:  Solving for p, Initial residual = 0.00118509, Final residual = 8.34426e-06, No Iterations 4
GAMG:  Solving for p, Initial residual = 0.000198882, Final residual = 1.64156e-06, No Iterations 4
time step continuity errors : sum local = 8.41783e-07, global = 5.10374e-08, cumulative = 2.31487e-06
smoothSolver:  Solving for omega, Initial residual = 0.00736424, Final residual = 0.000576532, No Iterations 4
smoothSolver:  Solving for k, Initial residual = 0.014364, Final residual = 0.00117128, No Iterations 3
ExecutionTime = 27.05 s  ClockTime = 28 s

fieldMinMax minMax write:
    min(mag(U)) = 0 in cell 2435 at location (7.52075 0.0928397 -0.036906) on processor 0
    max(mag(U)) = 1.11501 in cell 55026 at location (9.79252 -0.00997621 -0.0098411) on processor 0
    min(p) = -0.00284802 in cell 63453 at location (9.98504 0.00488587 -0.0975493) on processor 0
    max(p) = 0.256626 in cell 63127 at location (0.00460452 -0.0143625 0.0965813) on processor 3

forces forces write:
    Sum of forces
        Total    : (0.00670131 -3.59612e-07 -2.05109e-07)
        Pressure : (-1.08077e-07 -3.6363e-07 -1.69937e-07)
        Viscous  : (0.00670142 4.01755e-09 -3.51719e-08)
    Sum of moments
        Total    : (1.31806e-09 -1.28212e-05 1.30415e-05)
        Pressure : (1.88529e-10 -9.61973e-06 9.99396e-06)
        Viscous  : (1.12953e-09 -3.20148e-06 3.04751e-06)
    writing force and moment files.

surfaceFieldValue inlet_massFlow write:
    sum(inlet) of phi = -0.0312949

surfaceFieldValue outlet_massFlow write:
    sum(outlet) of phi = 0.0312949

Time = 39

smoothSolver:  Solving for Ux, Initial residual = 0.011059, Final residual = 0.001044, No Iterations 13
smoothSolver:  Solving for Uy, Initial residual = 0.104404, Final residual = 0.0101596, No Iterations 12
smoothSolver:  Solving for Uz, Initial residual = 0.127209, Final residual = 0.011277, No Iterations 13
GAMG:  Solving for p, Initial residual = 0.00585, Final residual = 5.80876e-05, No Iterations 6
GAMG:  Solving for p, Initial residual = 0.00103197, Final residual = 7.74149e-06, No Iterations 8
GAMG:  Solving for p, Initial residual = 0.000278288, Final residual = 1.99549e-06, No Iterations 4
time step continuity errors : sum local = 1.00427e-06, global = -1.44656e-07, cumulative = 2.17021e-06
smoothSolver:  Solving for omega, Initial residual = 0.0075987, Final residual = 0.000575511, No Iterations 4
smoothSolver:  Solving for k, Initial residual = 0.0142835, Final residual = 0.00117572, No Iterations 3
ExecutionTime = 27.79 s  ClockTime = 29 s

fieldMinMax minMax write:
    min(mag(U)) = 0 in cell 2435 at location (7.52075 0.0928397 -0.036906) on processor 0
    max(mag(U)) = 1.11803 in cell 55628 at location (9.79252 -0.00986863 0.0101823) on processor 0
    min(p) = -0.00289082 in cell 63453 at location (9.98504 0.00488587 -0.0975493) on processor 0
[...]
GAMG:  Solving for p, Initial residual = 3.75457e-06, Final residual = 6.57913e-08, No Iterations 3
GAMG:  Solving for p, Initial residual = 3.91332e-07, Final residual = 7.24591e-08, No Iterations 1
GAMG:  Solving for p, Initial residual = 2.2048e-07, Final residual = 5.28755e-08, No Iterations 1
time step continuity errors : sum local = 3.91682e-08, global = -8.62619e-09, cumulative = -3.51137e-07
smoothSolver:  Solving for omega, Initial residual = 1.58725e-06, Final residual = 1.07552e-07, No Iterations 2
smoothSolver:  Solving for k, Initial residual = 3.68781e-05, Final residual = 3.41379e-06, No Iterations 2
ExecutionTime = 247.21 s  ClockTime = 251 s

fieldMinMax minMax write:
    min(mag(U)) = 0 in cell 2435 at location (7.52075 0.0928397 -0.036906) on processor 0
    max(mag(U)) = 1.20808 in cell 17678 at location (6.6805 0.00979473 -0.00991963) on processor 1
    min(p) = -0.00384419 in cell 63759 at location (9.9954 -0.0145734 0.0965533) on processor 0
    max(p) = 0.380081 in cell 63127 at location (0.00460452 -0.0143625 0.0965813) on processor 3

forces forces write:
    Sum of forces
        Total    : (0.0111714 -1.12773e-07 -3.70365e-07)
        Pressure : (-5.64455e-07 -1.08324e-07 -3.87841e-07)
        Viscous  : (0.0111719 -4.44912e-09 1.74766e-08)
    Sum of moments
        Total    : (1.74219e-10 4.99748e-06 -1.08871e-06)
        Pressure : (4.50139e-10 4.16711e-06 -9.05848e-07)
        Viscous  : (-2.7592e-10 8.30362e-07 -1.82863e-07)
    writing force and moment files.

surfaceFieldValue inlet_massFlow write:
    sum(inlet) of phi = -0.0312949

surfaceFieldValue outlet_massFlow write:
    sum(outlet) of phi = 0.0312949

Time = 385

smoothSolver:  Solving for Ux, Initial residual = 8.80952e-06, Final residual = 5.93767e-07, No Iterations 5
smoothSolver:  Solving for Uy, Initial residual = 0.00012017, Final residual = 9.51378e-06, No Iterations 4
smoothSolver:  Solving for Uz, Initial residual = 0.000110414, Final residual = 9.08168e-06, No Iterations 4
GAMG:  Solving for p, Initial residual = 3.65765e-06, Final residual = 6.46611e-08, No Iterations 3
GAMG:  Solving for p, Initial residual = 3.78509e-07, Final residual = 6.89413e-08, No Iterations 1
GAMG:  Solving for p, Initial residual = 2.11183e-07, Final residual = 5.27768e-08, No Iterations 1
time step continuity errors : sum local = 3.9094e-08, global = -9.25951e-09, cumulative = -3.60397e-07
smoothSolver:  Solving for omega, Initial residual = 1.5349e-06, Final residual = 1.0332e-07, No Iterations 2
smoothSolver:  Solving for k, Initial residual = 3.60044e-05, Final residual = 3.30419e-06, No Iterations 2
ExecutionTime = 247.7 s  ClockTime = 251 s

fieldMinMax minMax write:
    min(mag(U)) = 0 in cell 2435 at location (7.52075 0.0928397 -0.036906) on processor 0
    max(mag(U)) = 1.20808 in cell 17678 at location (6.6805 0.00979473 -0.00991963) on processor 1
    min(p) = -0.00384435 in cell 63759 at location (9.9954 -0.0145734 0.0965533) on processor 0
    max(p) = 0.38008 in cell 63127 at location (0.00460452 -0.0143625 0.0965813) on processor 3

forces forces write:
    Sum of forces
        Total    : (0.0111714 -1.13394e-07 -3.71118e-07)
        Pressure : (-5.6443e-07 -1.08893e-07 -3.88518e-07)
        Viscous  : (0.011172 -4.50043e-09 1.73996e-08)
    Sum of moments
        Total    : (1.74096e-10 5.00357e-06 -1.0938e-06)
        Pressure : (4.50105e-10 4.17347e-06 -9.11284e-07)
        Viscous  : (-2.76009e-10 8.30103e-07 -1.8252e-07)
    writing force and moment files.

surfaceFieldValue inlet_massFlow write:
    sum(inlet) of phi = -0.0312949

surfaceFieldValue outlet_massFlow write:
    sum(outlet) of phi = 0.0312949

Time = 386

smoothSolver:  Solving for Ux, Initial residual = 8.51432e-06, Final residual = 5.69326e-07, No Iterations 5
smoothSolver:  Solving for Uy, Initial residual = 0.000117383, Final residual = 9.15479e-06, No Iterations 4
smoothSolver:  Solving for Uz, Initial residual = 0.000107519, Final residual = 8.74624e-06, No Iterations 4
GAMG:  Solving for p, Initial residual = 3.56149e-06, Final residual = 6.34102e-08, No Iterations 3
GAMG:  Solving for p, Initial residual = 3.68059e-07, Final residual = 6.56974e-08, No Iterations 1
GAMG:  Solving for p, Initial residual = 2.05257e-07, Final residual = 5.2795e-08, No Iterations 1
time step continuity errors : sum local = 3.91064e-08, global = -9.82858e-09, cumulative = -3.70225e-07
smoothSolver:  Solving for omega, Initial residual = 1.48383e-06, Final residual = 9.92442e-08, No Iterations 2
smoothSolver:  Solving for k, Initial residual = 3.51505e-05, Final residual = 3.19812e-06, No Iterations 2
ExecutionTime = 248.21 s  ClockTime = 252 s

fieldMinMax minMax write:
    min(mag(U)) = 0 in cell 2435 at location (7.52075 0.0928397 -0.036906) on processor 0
    max(mag(U)) = 1.20808 in cell 17678 at location (6.6805 0.00979473 -0.00991963) on processor 1
    min(p) = -0.0038445 in cell 63759 at location (9.9954 -0.0145734 0.0965533) on processor 0
    max(p) = 0.380079 in cell 63127 at location (0.00460452 -0.0143625 0.0965813) on processor 3

forces forces write:
    Sum of forces
        Total    : (0.0111715 -1.13829e-07 -3.71473e-07)
        Pressure : (-5.64405e-07 -1.09278e-07 -3.88813e-07)
        Viscous  : (0.0111721 -4.55063e-09 1.73393e-08)
    Sum of moments
        Total    : (1.74136e-10 5.00761e-06 -1.09801e-06)
        Pressure : (4.50098e-10 4.17782e-06 -9.15824e-07)
        Viscous  : (-2.75962e-10 8.29794e-07 -1.82188e-07)
    writing force and moment files.

surfaceFieldValue inlet_massFlow write:
    sum(inlet) of phi = -0.0312949

surfaceFieldValue outlet_massFlow write:
    sum(outlet) of phi = 0.0312949

Time = 387

smoothSolver:  Solving for Ux, Initial residual = 8.23046e-06, Final residual = 5.46264e-07, No Iterations 5
smoothSolver:  Solving for Uy, Initial residual = 0.000114796, Final residual = 8.82024e-06, No Iterations 4
smoothSolver:  Solving for Uz, Initial residual = 0.000104794, Final residual = 8.42653e-06, No Iterations 4
GAMG:  Solving for p, Initial residual = 3.46733e-06, Final residual = 6.1985e-08, No Iterations 3
GAMG:  Solving for p, Initial residual = 3.58761e-07, Final residual = 6.21028e-08, No Iterations 1
GAMG:  Solving for p, Initial residual = 1.98109e-07, Final residual = 5.23299e-08, No Iterations 1
time step continuity errors : sum local = 3.87609e-08, global = -1.02459e-08, cumulative = -3.80471e-07
smoothSolver:  Solving for omega, Initial residual = 1.43407e-06, Final residual = 9.53237e-08, No Iterations 2
smoothSolver:  Solving for k, Initial residual = 3.43156e-05, Final residual = 3.09545e-06, No Iterations 2
ExecutionTime = 248.7 s  ClockTime = 252 s

fieldMinMax minMax write:
    min(mag(U)) = 0 in cell 2435 at location (7.52075 0.0928397 -0.036906) on processor 0
    max(mag(U)) = 1.20808 in cell 17678 at location (6.6805 0.00979473 -0.00991963) on processor 1
    min(p) = -0.00384465 in cell 63759 at location (9.9954 -0.0145734 0.0965533) on processor 0
    max(p) = 0.380078 in cell 63127 at location (0.00460452 -0.0143625 0.0965813) on processor 3

forces forces write:
    Sum of forces
        Total    : (0.0111716 -1.14396e-07 -3.72121e-07)
        Pressure : (-5.64381e-07 -1.09795e-07 -3.89386e-07)
        Viscous  : (0.0111722 -4.60087e-09 1.72644e-08)
    Sum of moments
        Total    : (1.74005e-10 5.01274e-06 -1.10261e-06)
        Pressure : (4.50065e-10 4.18318e-06 -9.2074e-07)
        Viscous  : (-2.7606e-10 8.29556e-07 -1.81871e-07)
    writing force and moment files.

surfaceFieldValue inlet_massFlow write:
    sum(inlet) of phi = -0.0312949

surfaceFieldValue outlet_massFlow write:
    sum(outlet) of phi = 0.0312949

Time = 388

smoothSolver:  Solving for Ux, Initial residual = 7.95714e-06, Final residual = 5.24434e-07, No Iterations 5
smoothSolver:  Solving for Uy, Initial residual = 0.000112223, Final residual = 8.49909e-06, No Iterations 4
smoothSolver:  Solving for Uz, Initial residual = 0.000102096, Final residual = 8.12116e-06, No Iterations 4
GAMG:  Solving for p, Initial residual = 3.3759e-06, Final residual = 6.04707e-08, No Iterations 3
GAMG:  Solving for p, Initial residual = 3.49056e-07, Final residual = 5.89861e-08, No Iterations 1
GAMG:  Solving for p, Initial residual = 1.91535e-07, Final residual = 5.17656e-08, No Iterations 1
time step continuity errors : sum local = 3.8342e-08, global = -1.04899e-08, cumulative = -3.90961e-07
smoothSolver:  Solving for omega, Initial residual = 1.38564e-06, Final residual = 9.15565e-08, No Iterations 2
smoothSolver:  Solving for k, Initial residual = 3.34988e-05, Final residual = 2.99607e-06, No Iterations 2
ExecutionTime = 249.17 s  ClockTime = 253 s

fieldMinMax minMax write:
    min(mag(U)) = 0 in cell 2435 at location (7.52075 0.0928397 -0.036906) on processor 0
    max(mag(U)) = 1.20808 in cell 17678 at location (6.6805 0.00979473 -0.00991963) on processor 1
    min(p) = -0.00384479 in cell 63759 at location (9.9954 -0.0145734 0.0965533) on processor 0
    max(p) = 0.380077 in cell 63127 at location (0.00460452 -0.0143625 0.0965813) on processor 3

forces forces write:
    Sum of forces
        Total    : (0.0111717 -1.14803e-07 -3.72446e-07)
        Pressure : (-5.64358e-07 -1.10153e-07 -3.89652e-07)
        Viscous  : (0.0111722 -4.65009e-09 1.72064e-08)
    Sum of moments
        Total    : (1.7404e-10 5.01655e-06 -1.10669e-06)
        Pressure : (4.50059e-10 4.18729e-06 -9.25127e-07)
        Viscous  : (-2.76019e-10 8.29267e-07 -1.81564e-07)
    writing force and moment files.

surfaceFieldValue inlet_massFlow write:
    sum(inlet) of phi = -0.0312949

surfaceFieldValue outlet_massFlow write:
    sum(outlet) of phi = 0.0312949

Time = 389

smoothSolver:  Solving for Ux, Initial residual = 7.69406e-06, Final residual = 5.0375e-07, No Iterations 5
smoothSolver:  Solving for Uy, Initial residual = 0.000109635, Final residual = 8.19735e-06, No Iterations 4
smoothSolver:  Solving for Uz, Initial residual = 9.94406e-05, Final residual = 7.8276e-06, No Iterations 4
GAMG:  Solving for p, Initial residual = 3.28649e-06, Final residual = 5.879e-08, No Iterations 3
GAMG:  Solving for p, Initial residual = 3.38727e-07, Final residual = 5.58743e-08, No Iterations 1
GAMG:  Solving for p, Initial residual = 1.84495e-07, Final residual = 5.12515e-08, No Iterations 1
time step continuity errors : sum local = 3.79602e-08, global = -1.06436e-08, cumulative = -4.01605e-07
smoothSolver:  Solving for omega, Initial residual = 1.33855e-06, Final residual = 8.79389e-08, No Iterations 2
smoothSolver:  Solving for k, Initial residual = 3.26994e-05, Final residual = 2.89986e-06, No Iterations 2
ExecutionTime = 249.67 s  ClockTime = 253 s

fieldMinMax minMax write:
    min(mag(U)) = 0 in cell 2435 at location (7.52075 0.0928397 -0.036906) on processor 0
    max(mag(U)) = 1.20808 in cell 17678 at location (6.6805 0.00979473 -0.00991963) on processor 1
    min(p) = -0.00384493 in cell 63759 at location (9.9954 -0.0145734 0.0965533) on processor 0
    max(p) = 0.380075 in cell 63127 at location (0.00460452 -0.0143625 0.0965813) on processor 3

forces forces write:
    Sum of forces
        Total    : (0.0111717 -1.15356e-07 -3.73036e-07)
        Pressure : (-5.64335e-07 -1.10656e-07 -3.9017e-07)
        Viscous  : (0.0111723 -4.69938e-09 1.71337e-08)
    Sum of moments
        Total    : (1.73904e-10 5.02119e-06 -1.11116e-06)
        Pressure : (4.50027e-10 4.19214e-06 -9.29886e-07)
        Viscous  : (-2.76123e-10 8.29051e-07 -1.81273e-07)
    writing force and moment files.

surfaceFieldValue inlet_massFlow write:
    sum(inlet) of phi = -0.0312949

surfaceFieldValue outlet_massFlow write:
    sum(outlet) of phi = 0.0312949

Time = 390

smoothSolver:  Solving for Ux, Initial residual = 7.44082e-06, Final residual = 4.84132e-07, No Iterations 5
smoothSolver:  Solving for Uy, Initial residual = 0.000107089, Final residual = 7.90432e-06, No Iterations 4
smoothSolver:  Solving for Uz, Initial residual = 9.68495e-05, Final residual = 7.53839e-06, No Iterations 4
GAMG:  Solving for p, Initial residual = 3.19872e-06, Final residual = 9.88331e-08, No Iterations 2
GAMG:  Solving for p, Initial residual = 3.45908e-07, Final residual = 5.80698e-08, No Iterations 1
GAMG:  Solving for p, Initial residual = 1.88972e-07, Final residual = 5.80077e-08, No Iterations 1
time step continuity errors : sum local = 4.29633e-08, global = 1.17321e-08, cumulative = -3.89872e-07
smoothSolver:  Solving for omega, Initial residual = 1.29288e-06, Final residual = 8.44734e-08, No Iterations 2
smoothSolver:  Solving for k, Initial residual = 3.19158e-05, Final residual = 2.80665e-06, No Iterations 2
ExecutionTime = 250.18 s  ClockTime = 254 s

fieldMinMax minMax write:
    min(mag(U)) = 0 in cell 2435 at location (7.52075 0.0928397 -0.036906) on processor 0
    max(mag(U)) = 1.20808 in cell 17678 at location (6.6805 0.00979473 -0.00991963) on processor 1
    min(p) = -0.00384506 in cell 63759 at location (9.9954 -0.0145734 0.0965533) on processor 0
    max(p) = 0.380075 in cell 63127 at location (0.00460452 -0.0143625 0.0965813) on processor 3

forces forces write:
    Sum of forces
        Total    : (0.0111718 -1.15638e-07 -3.73075e-07)
        Pressure : (-5.64315e-07 -1.1089e-07 -3.90152e-07)
        Viscous  : (0.0111724 -4.74804e-09 1.70768e-08)
    Sum of moments
        Total    : (1.7394e-10 5.0222e-06 -1.11416e-06)
        Pressure : (4.50021e-10 4.1934e-06 -9.33159e-07)
        Viscous  : (-2.76081e-10 8.28795e-07 -1.80997e-07)
    writing force and moment files.

surfaceFieldValue inlet_massFlow write:
    sum(inlet) of phi = -0.0312949

surfaceFieldValue outlet_massFlow write:
    sum(outlet) of phi = 0.0312949

Time = 391

smoothSolver:  Solving for Ux, Initial residual = 7.19576e-06, Final residual = 4.65641e-07, No Iterations 5
smoothSolver:  Solving for Uy, Initial residual = 0.000104266, Final residual = 7.62659e-06, No Iterations 4
smoothSolver:  Solving for Uz, Initial residual = 9.39746e-05, Final residual = 7.26242e-06, No Iterations 4
GAMG:  Solving for p, Initial residual = 3.11427e-06, Final residual = 6.41608e-08, No Iterations 3
GAMG:  Solving for p, Initial residual = 3.34526e-07, Final residual = 5.44724e-08, No Iterations 1
GAMG:  Solving for p, Initial residual = 1.79173e-07, Final residual = 6.07259e-08, No Iterations 1
time step continuity errors : sum local = 4.49754e-08, global = -1.3451e-08, cumulative = -4.03324e-07
smoothSolver:  Solving for omega, Initial residual = 1.24833e-06, Final residual = 8.11351e-08, No Iterations 2
smoothSolver:  Solving for k, Initial residual = 3.11507e-05, Final residual = 2.71646e-06, No Iterations 2
ExecutionTime = 250.72 s  ClockTime = 254 s

fieldMinMax minMax write:
    min(mag(U)) = 0 in cell 2435 at location (7.52075 0.0928397 -0.036906) on processor 0
    max(mag(U)) = 1.20808 in cell 17678 at location (6.6805 0.00979473 -0.00991963) on processor 1
    min(p) = -0.0038452 in cell 63759 at location (9.9954 -0.0145734 0.0965533) on processor 0
    max(p) = 0.380073 in cell 63127 at location (0.00460452 -0.0143625 0.0965813) on processor 3

forces forces write:
    Sum of forces
        Total    : (0.0111718 -1.16342e-07 -3.73781e-07)
        Pressure : (-5.64291e-07 -1.11546e-07 -3.90788e-07)
        Viscous  : (0.0111724 -4.79595e-09 1.70066e-08)
    Sum of moments
        Total    : (1.73801e-10 5.02815e-06 -1.12014e-06)
        Pressure : (4.49992e-10 4.19955e-06 -9.39414e-07)
        Viscous  : (-2.7619e-10 8.28595e-07 -1.80728e-07)
    writing force and moment files.

surfaceFieldValue inlet_massFlow write:
    sum(inlet) of phi = -0.0312949

surfaceFieldValue outlet_massFlow write:
    sum(outlet) of phi = 0.0312949

Time = 392

smoothSolver:  Solving for Ux, Initial residual = 6.96358e-06, Final residual = 4.47689e-07, No Iterations 5
smoothSolver:  Solving for Uy, Initial residual = 0.000102686, Final residual = 7.37483e-06, No Iterations 4
smoothSolver:  Solving for Uz, Initial residual = 9.23195e-05, Final residual = 7.01912e-06, No Iterations 4
GAMG:  Solving for p, Initial residual = 3.02952e-06, Final residual = 9.46859e-08, No Iterations 2
GAMG:  Solving for p, Initial residual = 3.30198e-07, Final residual = 5.44223e-08, No Iterations 1
GAMG:  Solving for p, Initial residual = 1.77841e-07, Final residual = 5.15095e-08, No Iterations 1
time step continuity errors : sum local = 3.81486e-08, global = 1.09413e-08, cumulative = -3.92382e-07
smoothSolver:  Solving for omega, Initial residual = 1.20538e-06, Final residual = 7.79443e-08, No Iterations 2
smoothSolver:  Solving for k, Initial residual = 3.03984e-05, Final residual = 2.62904e-06, No Iterations 2
ExecutionTime = 251.22 s  ClockTime = 255 s

fieldMinMax minMax write:
    min(mag(U)) = 0 in cell 2435 at location (7.52075 0.0928397 -0.036906) on processor 0
    max(mag(U)) = 1.20808 in cell 17678 at location (6.6805 0.00979473 -0.00991963) on processor 1
    min(p) = -0.00384533 in cell 63759 at location (9.9954 -0.0145734 0.0965533) on processor 0
    max(p) = 0.380073 in cell 63127 at location (0.00460452 -0.0143625 0.0965813) on processor 3

forces forces write:
    Sum of forces
        Total    : (0.0111719 -1.16449e-07 -3.73762e-07)
        Pressure : (-5.64271e-07 -1.11606e-07 -3.90713e-07)
        Viscous  : (0.0111725 -4.84345e-09 1.69511e-08)
    Sum of moments
        Total    : (1.73853e-10 5.02869e-06 -1.12163e-06)
        Pressure : (4.49988e-10 4.20032e-06 -9.41156e-07)
        Viscous  : (-2.76135e-10 8.28365e-07 -1.80475e-07)
    writing force and moment files.

surfaceFieldValue inlet_massFlow write:
    sum(inlet) of phi = -0.0312949

surfaceFieldValue outlet_massFlow write:
    sum(outlet) of phi = 0.0312949

Time = 393

smoothSolver:  Solving for Ux, Initial residual = 6.73376e-06, Final residual = 6.72977e-07, No Iterations 4
smoothSolver:  Solving for Uy, Initial residual = 9.96075e-05, Final residual = 7.11148e-06, No Iterations 4
smoothSolver:  Solving for Uz, Initial residual = 8.91902e-05, Final residual = 6.75405e-06, No Iterations 4
GAMG:  Solving for p, Initial residual = 2.84766e-06, Final residual = 5.05134e-08, No Iterations 3
GAMG:  Solving for p, Initial residual = 3.19826e-07, Final residual = 7.17623e-08, No Iterations 1
GAMG:  Solving for p, Initial residual = 2.06796e-07, Final residual = 3.07451e-08, No Iterations 1
time step continuity errors : sum local = 2.27697e-08, global = -3.73641e-10, cumulative = -3.92756e-07
smoothSolver:  Solving for omega, Initial residual = 1.16046e-06, Final residual = 7.45159e-08, No Iterations 2
smoothSolver:  Solving for k, Initial residual = 2.9687e-05, Final residual = 2.54803e-06, No Iterations 2
ExecutionTime = 251.74 s  ClockTime = 255 s


SIMPLE solution converged in 393 iterations

fieldMinMax minMax write:
    min(mag(U)) = 0 in cell 2435 at location (7.52075 0.0928397 -0.036906) on processor 0
    max(mag(U)) = 1.20808 in cell 17678 at location (6.6805 0.00979473 -0.00991963) on processor 1
    min(p) = -0.00384545 in cell 63759 at location (9.9954 -0.0145734 0.0965533) on processor 0
    max(p) = 0.380072 in cell 63127 at location (0.00460452 -0.0143625 0.0965813) on processor 3

yPlus yPlus1 write:
    writing field yPlus
    patch wall y+ : min = 16.1704, max = 101.875, average = 90.5511
forces forces write:
    Sum of forces
        Total    : (0.011172 -1.1565e-07 -3.73045e-07)
        Pressure : (-5.64255e-07 -1.10754e-07 -3.89921e-07)
        Viscous  : (0.0111725 -4.89612e-09 1.68762e-08)
    Sum of moments
        Total    : (1.73723e-10 5.02147e-06 -1.11418e-06)
        Pressure : (4.49968e-10 4.19325e-06 -9.33923e-07)
        Viscous  : (-2.76246e-10 8.28222e-07 -1.80255e-07)
    writing force and moment files.

surfaceFieldValue inlet_massFlow write:
    sum(inlet) of phi = -0.0312949

surfaceFieldValue outlet_massFlow write:
    sum(outlet) of phi = 0.0312949

End

Finalising parallel run
